<configuration>
	<input>
		<net-file value="krampnitz.net.xml" />
	</input>
	<time>
		<begin value="0" />
		<end value="1000" />
	</time>
</configuration>
