<?xml version="1.0" encoding="UTF-8"?>

<!-- generated on 2024-09-16 07:44:35 by Eclipse SUMO netconvert Version 1.19.0
<configuration xmlns:xsi="http://www.w3.org/2001/XMLSchema-instance" xsi:noNamespaceSchemaLocation="http://sumo.dlr.de/xsd/netconvertConfiguration.xsd">

    <input>
        <node-files value="C:\Users\Daniel\work\git\scenario-convert-24.1\scenarios\krampnitz\application\krampnitz\sumo\krampnitz.nod.xml"/>
        <edge-files value="C:\Users\Daniel\work\git\scenario-convert-24.1\scenarios\krampnitz\application\krampnitz\sumo\krampnitz.edg.xml"/>
        <connection-files value="C:\Users\Daniel\work\git\scenario-convert-24.1\scenarios\krampnitz\application\krampnitz\sumo\krampnitz.con.xml"/>
    </input>

    <output>
        <output-file value="C:\Users\Daniel\work\git\scenario-convert-24.1\scenarios\krampnitz\application\krampnitz\sumo\krampnitz.net.xml"/>
    </output>

</configuration>
-->

<net version="1.16" junctionCornerDetail="5" limitTurnSpeed="5.50" xmlns:xsi="http://www.w3.org/2001/XMLSchema-instance" xsi:noNamespaceSchemaLocation="http://sumo.dlr.de/xsd/net_file.xsd">

    <location netOffset="-364620.49,-5810610.37" convBoundary="0.00,0.00,7088.84,5022.94" origBoundary="364620.49,5810610.37,371709.33,5815633.31" projParameter="+proj=utm +zone=33  +ellps=WGS84 +datum=WGS84 +units=m +no_defs"/>

    <edge id=":10219699274_0" function="internal">
        <lane id=":10219699274_0_0" index="0" speed="8.33" length="0.10" shape="1592.92,1988.25 1592.92,1988.25"/>
    </edge>
    <edge id=":10219699274_1" function="internal">
        <lane id=":10219699274_1_0" index="0" speed="3.65" length="2.34" shape="1592.92,1988.25 1593.67,1987.02 1594.46,1986.59"/>
    </edge>
    <edge id=":10219699274_4" function="internal">
        <lane id=":10219699274_4_0" index="0" speed="3.65" length="2.34" shape="1594.46,1986.59 1595.27,1986.96 1596.12,1988.13"/>
    </edge>
    <edge id=":10219699274_2" function="internal">
        <lane id=":10219699274_2_0" index="0" speed="8.33" length="0.10" shape="1596.12,1988.13 1596.12,1988.13"/>
    </edge>
    <edge id=":10219699274_3" function="internal">
        <lane id=":10219699274_3_0" index="0" speed="3.65" length="2.34" shape="1596.12,1988.13 1595.37,1989.36 1594.58,1989.79"/>
    </edge>
    <edge id=":10219699274_5" function="internal">
        <lane id=":10219699274_5_0" index="0" speed="3.65" length="2.34" shape="1594.58,1989.79 1593.77,1989.42 1592.92,1988.25"/>
    </edge>
    <edge id=":1038557942_0" function="internal">
        <lane id=":1038557942_0_0" index="0" speed="13.89" length="0.10" shape="6415.74,4060.74 6415.74,4060.74"/>
    </edge>
    <edge id=":1038557942_1" function="internal">
        <lane id=":1038557942_1_0" index="0" speed="3.65" length="2.34" shape="6415.74,4060.74 6416.43,4059.47 6417.19,4059.01"/>
    </edge>
    <edge id=":1038557942_4" function="internal">
        <lane id=":1038557942_4_0" index="0" speed="3.65" length="2.34" shape="6417.19,4059.01 6418.02,4059.34 6418.92,4060.46"/>
    </edge>
    <edge id=":1038557942_2" function="internal">
        <lane id=":1038557942_2_0" index="0" speed="13.89" length="0.10" shape="6418.92,4060.46 6418.92,4060.46"/>
    </edge>
    <edge id=":1038557942_3" function="internal">
        <lane id=":1038557942_3_0" index="0" speed="3.65" length="2.34" shape="6418.92,4060.46 6418.23,4061.73 6417.47,4062.19"/>
    </edge>
    <edge id=":1038557942_5" function="internal">
        <lane id=":1038557942_5_0" index="0" speed="3.65" length="2.34" shape="6417.47,4062.19 6416.64,4061.87 6415.74,4060.74"/>
    </edge>
    <edge id=":1040881487_0" function="internal">
        <lane id=":1040881487_0_0" index="0" speed="3.65" length="4.67" shape="5964.29,3491.00 5964.67,3489.61 5965.31,3488.98 5966.19,3489.11 5967.33,3490.00"/>
    </edge>
    <edge id=":1057024972_0" function="internal">
        <lane id=":1057024972_0_0" index="0" speed="6.37" length="9.07" shape="6415.23,3651.60 6412.65,3651.95 6410.87,3652.98 6409.88,3654.71 6409.69,3657.12"/>
    </edge>
    <edge id=":1057024972_1" function="internal">
        <lane id=":1057024972_1_0" index="0" speed="3.65" length="4.68" shape="6415.23,3651.60 6414.06,3650.75 6413.69,3649.93 6414.13,3649.15 6415.36,3648.39"/>
    </edge>
    <edge id=":1057024972_2" function="internal">
        <lane id=":1057024972_2_0" index="0" speed="6.61" length="9.28" shape="6409.49,3642.74 6409.88,3645.22 6410.99,3646.99 6412.82,3648.05 6415.36,3648.39"/>
    </edge>
    <edge id=":1057024972_3" function="internal">
        <lane id=":1057024972_3_0" index="0" speed="13.89" length="14.38" shape="6409.49,3642.74 6409.69,3657.12"/>
    </edge>
    <edge id=":1057024981_0" function="internal">
        <lane id=":1057024981_0_0" index="0" speed="13.89" length="1.02" shape="6410.85,3618.66 6410.86,3618.97 6410.87,3619.17 6410.87,3619.38 6410.85,3619.68"/>
    </edge>
    <edge id=":1057024981_1" function="internal">
        <lane id=":1057024981_1_0" index="0" speed="3.65" length="2.34" shape="6410.85,3618.66 6410.07,3619.88 6409.27,3620.29"/>
    </edge>
    <edge id=":1057024981_4" function="internal">
        <lane id=":1057024981_4_0" index="0" speed="3.65" length="2.34" shape="6409.27,3620.29 6408.47,3619.90 6407.65,3618.72"/>
    </edge>
    <edge id=":1057024981_2" function="internal">
        <lane id=":1057024981_2_0" index="0" speed="11.11" length="0.21" shape="6407.85,3618.77 6407.65,3618.72"/>
    </edge>
    <edge id=":1057024981_3" function="internal">
        <lane id=":1057024981_3_0" index="0" speed="3.82" length="1.07" shape="6407.85,3618.77 6408.68,3618.09"/>
    </edge>
    <edge id=":1057024981_5" function="internal">
        <lane id=":1057024981_5_0" index="0" speed="3.82" length="3.51" shape="6408.68,3618.09 6408.95,3617.87 6409.81,3617.72 6410.45,3618.33 6410.85,3619.68"/>
    </edge>
    <edge id=":1057025008_0" function="internal">
        <lane id=":1057025008_0_0" index="0" speed="11.11" length="0.25" shape="6407.97,3677.87 6408.20,3677.80"/>
    </edge>
    <edge id=":1057025008_1" function="internal">
        <lane id=":1057025008_1_0" index="0" speed="3.65" length="1.44" shape="6407.97,3677.87 6408.75,3676.65"/>
    </edge>
    <edge id=":1057025008_4" function="internal">
        <lane id=":1057025008_4_0" index="0" speed="3.65" length="3.23" shape="6408.75,3676.65 6409.54,3676.24 6410.35,3676.63 6411.17,3677.81"/>
    </edge>
    <edge id=":1057025008_2" function="internal">
        <lane id=":1057025008_2_0" index="0" speed="13.89" length="1.00" shape="6411.15,3676.81 6411.17,3677.81"/>
    </edge>
    <edge id=":1057025008_3" function="internal">
        <lane id=":1057025008_3_0" index="0" speed="3.85" length="2.26" shape="6411.15,3676.81 6410.78,3678.16 6410.17,3678.77"/>
    </edge>
    <edge id=":1057025008_5" function="internal">
        <lane id=":1057025008_5_0" index="0" speed="3.85" length="2.26" shape="6410.17,3678.77 6409.31,3678.65 6408.20,3677.80"/>
    </edge>
    <edge id=":10699427230_0" function="internal">
        <lane id=":10699427230_0_0" index="0" speed="11.11" length="0.10" shape="6795.99,3994.92 6795.99,3994.92"/>
    </edge>
    <edge id=":10699427230_1" function="internal">
        <lane id=":10699427230_1_0" index="0" speed="3.65" length="2.34" shape="6795.99,3994.92 6796.41,3993.54 6797.06,3992.93"/>
    </edge>
    <edge id=":10699427230_4" function="internal">
        <lane id=":10699427230_4_0" index="0" speed="3.65" length="2.34" shape="6797.06,3992.93 6797.94,3993.08 6799.05,3994.00"/>
    </edge>
    <edge id=":10699427230_2" function="internal">
        <lane id=":10699427230_2_0" index="0" speed="11.11" length="0.10" shape="6799.05,3994.00 6799.05,3994.00"/>
    </edge>
    <edge id=":10699427230_3" function="internal">
        <lane id=":10699427230_3_0" index="0" speed="3.65" length="2.34" shape="6799.05,3994.00 6798.63,3995.38 6797.98,3995.99"/>
    </edge>
    <edge id=":10699427230_5" function="internal">
        <lane id=":10699427230_5_0" index="0" speed="3.65" length="2.34" shape="6797.98,3995.99 6797.10,3995.84 6795.99,3994.92"/>
    </edge>
    <edge id=":10767186257_0" function="internal">
        <lane id=":10767186257_0_0" index="0" speed="8.33" length="0.10" shape="2011.61,1601.86 2011.61,1601.86"/>
    </edge>
    <edge id=":10767186257_1" function="internal">
        <lane id=":10767186257_1_0" index="0" speed="3.65" length="2.34" shape="2011.61,1601.86 2012.08,1600.50 2012.75,1599.90"/>
    </edge>
    <edge id=":10767186257_4" function="internal">
        <lane id=":10767186257_4_0" index="0" speed="3.65" length="2.34" shape="2012.75,1599.90 2013.62,1600.08 2014.71,1601.04"/>
    </edge>
    <edge id=":10767186257_2" function="internal">
        <lane id=":10767186257_2_0" index="0" speed="8.33" length="0.10" shape="2014.71,1601.04 2014.71,1601.04"/>
    </edge>
    <edge id=":10767186257_3" function="internal">
        <lane id=":10767186257_3_0" index="0" speed="3.65" length="2.34" shape="2014.71,1601.04 2014.24,1602.40 2013.57,1603.00"/>
    </edge>
    <edge id=":10767186257_5" function="internal">
        <lane id=":10767186257_5_0" index="0" speed="3.65" length="2.34" shape="2013.57,1603.00 2012.70,1602.82 2011.61,1601.86"/>
    </edge>
    <edge id=":10767186258_0" function="internal">
        <lane id=":10767186258_0_0" index="0" speed="8.33" length="0.10" shape="2007.54,1586.70 2007.54,1586.70"/>
    </edge>
    <edge id=":10767186258_1" function="internal">
        <lane id=":10767186258_1_0" index="0" speed="3.65" length="2.34" shape="2007.54,1586.70 2008.01,1585.34 2008.68,1584.74"/>
    </edge>
    <edge id=":10767186258_4" function="internal">
        <lane id=":10767186258_4_0" index="0" speed="3.65" length="2.34" shape="2008.68,1584.74 2009.55,1584.92 2010.64,1585.88"/>
    </edge>
    <edge id=":10767186258_2" function="internal">
        <lane id=":10767186258_2_0" index="0" speed="8.33" length="0.10" shape="2010.64,1585.88 2010.64,1585.88"/>
    </edge>
    <edge id=":10767186258_3" function="internal">
        <lane id=":10767186258_3_0" index="0" speed="3.65" length="2.34" shape="2010.64,1585.88 2010.17,1587.24 2009.50,1587.84"/>
    </edge>
    <edge id=":10767186258_5" function="internal">
        <lane id=":10767186258_5_0" index="0" speed="3.65" length="2.34" shape="2009.50,1587.84 2008.63,1587.66 2007.54,1586.70"/>
    </edge>
    <edge id=":10767199888_0" function="internal">
        <lane id=":10767199888_0_0" index="0" speed="8.33" length="0.10" shape="2021.59,1639.13 2021.59,1639.13"/>
    </edge>
    <edge id=":10767199888_1" function="internal">
        <lane id=":10767199888_1_0" index="0" speed="3.65" length="2.34" shape="2021.59,1639.13 2022.06,1637.77 2022.73,1637.17"/>
    </edge>
    <edge id=":10767199888_4" function="internal">
        <lane id=":10767199888_4_0" index="0" speed="3.65" length="2.34" shape="2022.73,1637.17 2023.60,1637.35 2024.69,1638.31"/>
    </edge>
    <edge id=":10767199888_2" function="internal">
        <lane id=":10767199888_2_0" index="0" speed="8.33" length="0.10" shape="2024.69,1638.31 2024.69,1638.31"/>
    </edge>
    <edge id=":10767199888_3" function="internal">
        <lane id=":10767199888_3_0" index="0" speed="3.65" length="2.34" shape="2024.69,1638.31 2024.22,1639.67 2023.55,1640.27"/>
    </edge>
    <edge id=":10767199888_5" function="internal">
        <lane id=":10767199888_5_0" index="0" speed="3.65" length="2.34" shape="2023.55,1640.27 2022.68,1640.09 2021.59,1639.13"/>
    </edge>
    <edge id=":10767199889_0" function="internal">
        <lane id=":10767199889_0_0" index="0" speed="8.33" length="0.30" shape="2019.10,1629.84 2019.03,1629.55"/>
    </edge>
    <edge id=":10767199889_1" function="internal">
        <lane id=":10767199889_1_0" index="0" speed="3.65" length="2.34" shape="2019.10,1629.84 2019.57,1628.47 2020.23,1627.88"/>
    </edge>
    <edge id=":10767199889_4" function="internal">
        <lane id=":10767199889_4_0" index="0" speed="3.65" length="2.34" shape="2020.23,1627.88 2021.11,1628.06 2022.19,1629.01"/>
    </edge>
    <edge id=":10767199889_2" function="internal">
        <lane id=":10767199889_2_0" index="0" speed="8.33" length="0.30" shape="2022.12,1628.72 2022.19,1629.01"/>
    </edge>
    <edge id=":10767199889_3" function="internal">
        <lane id=":10767199889_3_0" index="0" speed="3.65" length="2.34" shape="2022.12,1628.72 2021.65,1630.09 2020.98,1630.68"/>
    </edge>
    <edge id=":10767199889_5" function="internal">
        <lane id=":10767199889_5_0" index="0" speed="3.65" length="2.34" shape="2020.98,1630.68 2020.11,1630.50 2019.03,1629.55"/>
    </edge>
    <edge id=":10767211639_0" function="internal">
        <lane id=":10767211639_0_0" index="0" speed="8.33" length="0.10" shape="1998.45,1552.77 1998.45,1552.77"/>
    </edge>
    <edge id=":10767211639_1" function="internal">
        <lane id=":10767211639_1_0" index="0" speed="3.65" length="2.34" shape="1998.45,1552.77 1998.92,1551.41 1999.59,1550.81"/>
    </edge>
    <edge id=":10767211639_4" function="internal">
        <lane id=":10767211639_4_0" index="0" speed="3.65" length="2.34" shape="1999.59,1550.81 2000.46,1550.99 2001.55,1551.95"/>
    </edge>
    <edge id=":10767211639_2" function="internal">
        <lane id=":10767211639_2_0" index="0" speed="8.33" length="0.10" shape="2001.55,1551.95 2001.55,1551.95"/>
    </edge>
    <edge id=":10767211639_3" function="internal">
        <lane id=":10767211639_3_0" index="0" speed="3.65" length="2.34" shape="2001.55,1551.95 2001.08,1553.31 2000.41,1553.91"/>
    </edge>
    <edge id=":10767211639_5" function="internal">
        <lane id=":10767211639_5_0" index="0" speed="3.65" length="2.34" shape="2000.41,1553.91 1999.54,1553.73 1998.45,1552.77"/>
    </edge>
    <edge id=":10767211640_0" function="internal">
        <lane id=":10767211640_0_0" index="0" speed="8.33" length="0.10" shape="1995.31,1541.04 1995.31,1541.04"/>
    </edge>
    <edge id=":10767211640_1" function="internal">
        <lane id=":10767211640_1_0" index="0" speed="3.65" length="2.34" shape="1995.31,1541.04 1995.78,1539.68 1996.45,1539.08"/>
    </edge>
    <edge id=":10767211640_4" function="internal">
        <lane id=":10767211640_4_0" index="0" speed="3.65" length="2.34" shape="1996.45,1539.08 1997.32,1539.26 1998.41,1540.22"/>
    </edge>
    <edge id=":10767211640_2" function="internal">
        <lane id=":10767211640_2_0" index="0" speed="8.33" length="0.10" shape="1998.41,1540.22 1998.41,1540.22"/>
    </edge>
    <edge id=":10767211640_3" function="internal">
        <lane id=":10767211640_3_0" index="0" speed="3.65" length="2.34" shape="1998.41,1540.22 1997.94,1541.58 1997.27,1542.18"/>
    </edge>
    <edge id=":10767211640_5" function="internal">
        <lane id=":10767211640_5_0" index="0" speed="3.65" length="2.34" shape="1997.27,1542.18 1996.40,1542.00 1995.31,1541.04"/>
    </edge>
    <edge id=":10973919932_0" function="internal">
        <lane id=":10973919932_0_0" index="0" speed="3.65" length="4.67" shape="1903.54,1531.73 1903.96,1530.35 1904.61,1529.74 1905.49,1529.89 1906.60,1530.81"/>
    </edge>
    <edge id=":10973919935_0" function="internal">
        <lane id=":10973919935_0_0" index="0" speed="3.65" length="4.67" shape="1624.57,1787.51 1623.18,1787.09 1622.57,1786.45 1622.72,1785.56 1623.63,1784.45"/>
    </edge>
    <edge id=":10989752595_0" function="internal">
        <lane id=":10989752595_0_0" index="0" speed="8.33" length="0.10" shape="2974.22,1448.07 2974.22,1448.07"/>
    </edge>
    <edge id=":10989752595_1" function="internal">
        <lane id=":10989752595_1_0" index="0" speed="3.65" length="2.34" shape="2974.22,1448.07 2972.96,1447.36 2972.50,1446.59"/>
    </edge>
    <edge id=":10989752595_4" function="internal">
        <lane id=":10989752595_4_0" index="0" speed="3.65" length="2.34" shape="2972.50,1446.59 2972.84,1445.76 2973.98,1444.87"/>
    </edge>
    <edge id=":10989752595_2" function="internal">
        <lane id=":10989752595_2_0" index="0" speed="8.33" length="0.10" shape="2973.98,1444.87 2973.98,1444.87"/>
    </edge>
    <edge id=":10989752595_3" function="internal">
        <lane id=":10989752595_3_0" index="0" speed="3.65" length="2.34" shape="2973.98,1444.87 2975.24,1445.58 2975.70,1446.35"/>
    </edge>
    <edge id=":10989752595_5" function="internal">
        <lane id=":10989752595_5_0" index="0" speed="3.65" length="2.34" shape="2975.70,1446.35 2975.36,1447.18 2974.22,1448.07"/>
    </edge>
    <edge id=":10995232766_0" function="internal">
        <lane id=":10995232766_0_0" index="0" speed="8.33" length="13.16" shape="1566.44,1330.98 1562.65,1332.92 1559.81,1334.98 1557.92,1337.17 1556.97,1339.48"/>
    </edge>
    <edge id=":10995232766_1" function="internal">
        <lane id=":10995232766_1_0" index="0" speed="7.38" length="17.48" shape="1566.44,1330.98 1561.31,1332.50 1558.01,1331.74 1556.55,1328.68 1556.92,1323.34"/>
    </edge>
    <edge id=":10995232766_2" function="internal">
        <lane id=":10995232766_2_0" index="0" speed="3.65" length="4.67" shape="1566.44,1330.98 1565.02,1330.73 1564.34,1330.16 1564.38,1329.27 1565.16,1328.05"/>
    </edge>
    <edge id=":10995232766_3" function="internal">
        <lane id=":10995232766_3_0" index="0" speed="5.58" length="9.35" shape="1560.06,1323.97 1559.86,1326.82 1560.64,1328.46 1562.41,1328.87 1565.16,1328.05"/>
    </edge>
    <edge id=":10995232766_4" function="internal">
        <lane id=":10995232766_4_0" index="0" speed="8.33" length="15.82" shape="1560.06,1323.97 1556.97,1339.48"/>
    </edge>
    <edge id=":10995232766_5" function="internal">
        <lane id=":10995232766_5_0" index="0" speed="3.65" length="1.44" shape="1560.06,1323.97 1559.04,1324.99"/>
    </edge>
    <edge id=":10995232766_9" function="internal">
        <lane id=":10995232766_9_0" index="0" speed="3.65" length="3.23" shape="1559.04,1324.99 1558.18,1325.22 1557.47,1324.68 1556.92,1323.34"/>
    </edge>
    <edge id=":10995232766_6" function="internal">
        <lane id=":10995232766_6_0" index="0" speed="8.33" length="15.82" shape="1553.83,1338.85 1556.92,1323.34"/>
    </edge>
    <edge id=":10995232766_7" function="internal">
        <lane id=":10995232766_7_0" index="0" speed="8.33" length="3.52" shape="1553.83,1338.85 1555.02,1335.79 1555.17,1335.61"/>
    </edge>
    <edge id=":10995232766_8" function="internal">
        <lane id=":10995232766_8_0" index="0" speed="3.65" length="1.44" shape="1553.83,1338.85 1554.85,1337.83"/>
    </edge>
    <edge id=":10995232766_10" function="internal">
        <lane id=":10995232766_10_0" index="0" speed="8.33" length="12.69" shape="1555.17,1335.61 1557.30,1332.97 1560.68,1330.39 1565.16,1328.05"/>
    </edge>
    <edge id=":10995232766_11" function="internal">
        <lane id=":10995232766_11_0" index="0" speed="3.65" length="3.23" shape="1554.85,1337.83 1555.72,1337.60 1556.42,1338.14 1556.97,1339.48"/>
    </edge>
    <edge id=":11079338247_0" function="internal">
        <lane id=":11079338247_0_0" index="0" speed="16.67" length="0.30" shape="2589.29,2049.58 2589.28,2049.28"/>
    </edge>
    <edge id=":11079338247_1" function="internal">
        <lane id=":11079338247_1_0" index="0" speed="3.65" length="2.34" shape="2589.29,2049.58 2590.05,2048.36 2590.83,2047.93"/>
    </edge>
    <edge id=":11079338247_4" function="internal">
        <lane id=":11079338247_4_0" index="0" speed="3.65" length="2.34" shape="2590.83,2047.93 2591.65,2048.30 2592.48,2049.48"/>
    </edge>
    <edge id=":11079338247_2" function="internal">
        <lane id=":11079338247_2_0" index="0" speed="16.67" length="0.30" shape="2592.47,2049.18 2592.48,2049.48"/>
    </edge>
    <edge id=":11079338247_3" function="internal">
        <lane id=":11079338247_3_0" index="0" speed="3.65" length="2.34" shape="2592.47,2049.18 2591.71,2050.40 2590.93,2050.83"/>
    </edge>
    <edge id=":11079338247_5" function="internal">
        <lane id=":11079338247_5_0" index="0" speed="3.65" length="2.34" shape="2590.93,2050.83 2590.11,2050.45 2589.28,2049.28"/>
    </edge>
    <edge id=":11358967423_0" function="internal">
        <lane id=":11358967423_0_0" index="0" speed="6.25" length="9.04" shape="2838.73,3290.66 2837.70,3288.38 2836.19,3287.04 2834.21,3286.63 2831.77,3287.17"/>
    </edge>
    <edge id=":11358967423_1" function="internal">
        <lane id=":11358967423_1_0" index="0" speed="4.17" length="14.90" shape="2838.73,3290.66 2834.56,3276.35"/>
    </edge>
    <edge id=":11358967423_2" function="internal">
        <lane id=":11358967423_2_0" index="0" speed="6.25" length="14.70" shape="2838.73,3290.66 2838.16,3286.71 2838.95,3283.44 2841.09,3280.86 2844.60,3278.95"/>
    </edge>
    <edge id=":11358967423_3" function="internal">
        <lane id=":11358967423_3_0" index="0" speed="3.65" length="4.67" shape="2838.73,3290.66 2839.16,3289.28 2839.82,3288.67 2840.70,3288.83 2841.80,3289.76"/>
    </edge>
    <edge id=":11358967423_4" function="internal">
        <lane id=":11358967423_4_0" index="0" speed="6.25" length="9.81" shape="2845.72,3281.95 2843.38,3283.22 2841.95,3284.94 2841.42,3287.12 2841.80,3289.76"/>
    </edge>
    <edge id=":11358967423_5" function="internal">
        <lane id=":11358967423_5_0" index="0" speed="8.33" length="14.90" shape="2845.72,3281.95 2831.77,3287.17"/>
    </edge>
    <edge id=":11358967423_6" function="internal">
        <lane id=":11358967423_6_0" index="0" speed="6.25" length="4.13" shape="2845.72,3281.95 2841.80,3282.80 2841.68,3282.78"/>
    </edge>
    <edge id=":11358967423_7" function="internal">
        <lane id=":11358967423_7_0" index="0" speed="3.65" length="1.44" shape="2845.72,3281.95 2844.31,3281.62"/>
    </edge>
    <edge id=":11358967423_16" function="internal">
        <lane id=":11358967423_16_0" index="0" speed="6.25" length="10.35" shape="2841.68,3282.78 2838.63,3282.16 2836.22,3280.01 2834.56,3276.35"/>
    </edge>
    <edge id=":11358967423_17" function="internal">
        <lane id=":11358967423_17_0" index="0" speed="3.65" length="3.23" shape="2844.31,3281.62 2843.66,3281.01 2843.75,3280.12 2844.60,3278.95"/>
    </edge>
    <edge id=":11358967423_8" function="internal">
        <lane id=":11358967423_8_0" index="0" speed="6.25" length="9.04" shape="2837.64,3275.46 2838.67,3277.74 2840.18,3279.08 2842.15,3279.48 2844.60,3278.95"/>
    </edge>
    <edge id=":11358967423_9" function="internal">
        <lane id=":11358967423_9_0" index="0" speed="4.17" length="14.89" shape="2837.64,3275.46 2841.80,3289.76"/>
    </edge>
    <edge id=":11358967423_10" function="internal">
        <lane id=":11358967423_10_0" index="0" speed="6.25" length="14.70" shape="2837.64,3275.46 2838.20,3279.41 2837.42,3282.68 2835.27,3285.26 2831.77,3287.17"/>
    </edge>
    <edge id=":11358967423_11" function="internal">
        <lane id=":11358967423_11_0" index="0" speed="3.65" length="4.67" shape="2837.64,3275.46 2837.20,3276.84 2836.55,3277.44 2835.67,3277.28 2834.56,3276.35"/>
    </edge>
    <edge id=":11358967423_12" function="internal">
        <lane id=":11358967423_12_0" index="0" speed="6.25" length="9.81" shape="2830.65,3284.17 2832.98,3282.90 2834.42,3281.17 2834.94,3278.99 2834.56,3276.35"/>
    </edge>
    <edge id=":11358967423_13" function="internal">
        <lane id=":11358967423_13_0" index="0" speed="8.33" length="14.89" shape="2830.65,3284.17 2844.60,3278.95"/>
    </edge>
    <edge id=":11358967423_14" function="internal">
        <lane id=":11358967423_14_0" index="0" speed="6.25" length="4.13" shape="2830.65,3284.17 2834.56,3283.32 2834.68,3283.34"/>
    </edge>
    <edge id=":11358967423_15" function="internal">
        <lane id=":11358967423_15_0" index="0" speed="3.65" length="1.44" shape="2830.65,3284.17 2832.05,3284.50"/>
    </edge>
    <edge id=":11358967423_18" function="internal">
        <lane id=":11358967423_18_0" index="0" speed="6.25" length="10.35" shape="2834.68,3283.34 2837.73,3283.96 2840.14,3286.11 2841.80,3289.76"/>
    </edge>
    <edge id=":11358967423_19" function="internal">
        <lane id=":11358967423_19_0" index="0" speed="3.65" length="3.23" shape="2832.05,3284.50 2832.71,3285.11 2832.61,3286.00 2831.77,3287.17"/>
    </edge>
    <edge id=":11358967424_0" function="internal">
        <lane id=":11358967424_0_0" index="0" speed="6.25" length="9.03" shape="2883.69,3371.53 2882.51,3369.35 2880.92,3368.07 2878.92,3367.69 2876.50,3368.21"/>
    </edge>
    <edge id=":11358967424_1" function="internal">
        <lane id=":11358967424_1_0" index="0" speed="4.17" length="14.42" shape="2883.69,3371.53 2878.71,3357.99"/>
    </edge>
    <edge id=":11358967424_2" function="internal">
        <lane id=":11358967424_2_0" index="0" speed="6.25" length="11.41" shape="2883.69,3371.53 2883.18,3368.64 2883.48,3365.48 2884.53,3362.75 2886.31,3361.16"/>
    </edge>
    <edge id=":11358967424_3" function="internal">
        <lane id=":11358967424_3_0" index="0" speed="3.65" length="4.67" shape="2883.69,3371.53 2884.02,3370.12 2884.64,3369.47 2885.53,3369.57 2886.69,3370.42"/>
    </edge>
    <edge id=":11358967424_4" function="internal">
        <lane id=":11358967424_4_0" index="0" speed="5.81" length="6.97" shape="2887.43,3364.16 2886.38,3364.93 2885.91,3366.22 2886.01,3368.05 2886.69,3370.42"/>
    </edge>
    <edge id=":11358967424_5" function="internal">
        <lane id=":11358967424_5_0" index="0" speed="8.33" length="11.66" shape="2887.43,3364.16 2876.50,3368.21"/>
    </edge>
    <edge id=":11358967424_6" function="internal">
        <lane id=":11358967424_6_0" index="0" speed="6.25" length="2.80" shape="2887.43,3364.16 2885.04,3364.11 2884.68,3363.92"/>
    </edge>
    <edge id=":11358967424_7" function="internal">
        <lane id=":11358967424_7_0" index="0" speed="3.65" length="1.44" shape="2887.43,3364.16 2886.02,3363.83"/>
    </edge>
    <edge id=":11358967424_16" function="internal">
        <lane id=":11358967424_16_0" index="0" speed="6.25" length="8.61" shape="2884.68,3363.92 2882.47,3362.73 2880.19,3360.52 2878.71,3357.99"/>
    </edge>
    <edge id=":11358967424_17" function="internal">
        <lane id=":11358967424_17_0" index="0" speed="3.65" length="3.23" shape="2886.02,3363.83 2885.37,3363.22 2885.47,3362.33 2886.31,3361.16"/>
    </edge>
    <edge id=":11358967424_8" function="internal">
        <lane id=":11358967424_8_0" index="0" speed="5.79" length="6.95" shape="2881.71,3356.89 2882.73,3359.13 2883.83,3360.59 2885.03,3361.27 2886.31,3361.16"/>
    </edge>
    <edge id=":11358967424_9" function="internal">
        <lane id=":11358967424_9_0" index="0" speed="4.17" length="14.42" shape="2881.71,3356.89 2886.69,3370.42"/>
    </edge>
    <edge id=":11358967424_10" function="internal">
        <lane id=":11358967424_10_0" index="0" speed="6.25" length="13.46" shape="2881.71,3356.89 2882.05,3360.10 2881.11,3363.47 2879.16,3366.38 2876.50,3368.21"/>
    </edge>
    <edge id=":11358967424_11" function="internal">
        <lane id=":11358967424_11_0" index="0" speed="3.65" length="4.67" shape="2881.71,3356.89 2881.38,3358.29 2880.76,3358.94 2879.88,3358.84 2878.71,3357.99"/>
    </edge>
    <edge id=":11358967424_12" function="internal">
        <lane id=":11358967424_12_0" index="0" speed="6.25" length="9.06" shape="2875.39,3365.21 2877.57,3364.03 2878.85,3362.43 2879.23,3360.42 2878.71,3357.99"/>
    </edge>
    <edge id=":11358967424_13" function="internal">
        <lane id=":11358967424_13_0" index="0" speed="8.33" length="11.65" shape="2875.39,3365.21 2886.31,3361.16"/>
    </edge>
    <edge id=":11358967424_14" function="internal">
        <lane id=":11358967424_14_0" index="0" speed="6.25" length="4.07" shape="2875.39,3365.21 2878.59,3364.87 2879.40,3365.10"/>
    </edge>
    <edge id=":11358967424_15" function="internal">
        <lane id=":11358967424_15_0" index="0" speed="3.65" length="1.44" shape="2875.39,3365.21 2876.79,3365.55"/>
    </edge>
    <edge id=":11358967424_18" function="internal">
        <lane id=":11358967424_18_0" index="0" speed="6.25" length="9.38" shape="2879.40,3365.10 2881.96,3365.82 2884.87,3367.76 2886.69,3370.42"/>
    </edge>
    <edge id=":11358967424_19" function="internal">
        <lane id=":11358967424_19_0" index="0" speed="3.65" length="3.23" shape="2876.79,3365.55 2877.44,3366.16 2877.35,3367.05 2876.50,3368.21"/>
    </edge>
    <edge id=":1141189557_0" function="internal">
        <lane id=":1141189557_0_0" index="0" speed="3.65" length="4.67" shape="1106.75,4014.52 1105.31,4014.45 1104.56,4013.97 1104.49,4013.08 1105.11,4011.78"/>
    </edge>
    <edge id=":12139266041_0" function="internal">
        <lane id=":12139266041_0_0" index="0" speed="6.02" length="9.07" shape="2769.04,3068.40 2767.31,3066.48 2765.50,3065.75 2763.61,3066.23 2761.64,3067.90"/>
    </edge>
    <edge id=":12139266041_1" function="internal">
        <lane id=":12139266041_1_0" index="0" speed="19.44" length="14.62" shape="2769.04,3068.40 2760.91,3056.25"/>
    </edge>
    <edge id=":12139266041_2" function="internal">
        <lane id=":12139266041_2_0" index="0" speed="3.65" length="1.44" shape="2769.04,3068.40 2769.04,3066.96"/>
    </edge>
    <edge id=":12139266041_9" function="internal">
        <lane id=":12139266041_9_0" index="0" speed="3.65" length="3.23" shape="2769.04,3066.96 2769.48,3066.18 2770.37,3066.07 2771.70,3066.62"/>
    </edge>
    <edge id=":12139266041_3" function="internal">
        <lane id=":12139266041_3_0" index="0" speed="19.44" length="14.62" shape="2763.57,3054.47 2771.70,3066.62"/>
    </edge>
    <edge id=":12139266041_4" function="internal">
        <lane id=":12139266041_4_0" index="0" speed="9.02" length="3.73" shape="2763.57,3054.47 2765.06,3057.71 2765.07,3057.88"/>
    </edge>
    <edge id=":12139266041_5" function="internal">
        <lane id=":12139266041_5_0" index="0" speed="3.65" length="1.44" shape="2763.57,3054.47 2763.58,3055.92"/>
    </edge>
    <edge id=":12139266041_10" function="internal">