<nodes>
	<node id="10219699274" x="366215.01" y="5812598.56" z="0.00" type="priority" />
	<node id="1038557942" x="371037.82" y="5814670.97" z="0.00" type="priority" />
	<node id="1040881487" x="370586.30" y="5814100.87" z="0.00" type="priority" />
	<node id="1057024972" x="371028.46" y="5814260.16" z="0.00" type="priority" />
	<node id="1057024981" x="371029.75" y="5814229.90" z="0.00" type="priority" />
	<node id="1057025008" x="371030.04" y="5814287.30" z="0.00" type="priority" />
	<node id="10699427230" x="371418.01" y="5814604.83" z="0.00" type="priority" />
	<node id="10767186257" x="366633.65" y="5812211.82" z="0.00" type="priority" />
	<node id="10767186258" x="366629.58" y="5812196.66" z="0.00" type="priority" />
	<node id="10767199888" x="366643.63" y="5812249.09" z="0.00" type="priority" />
	<node id="10767199889" x="366641.10" y="5812239.65" z="0.00" type="priority" />
	<node id="10767211639" x="366620.49" y="5812162.73" z="0.00" type="priority" />
	<node id="10767211640" x="366617.35" y="5812151.00" z="0.00" type="priority" />
	<node id="10973919932" x="366525.56" y="5812141.64" z="0.00" type="priority" />
	<node id="10973919935" x="366244.59" y="5812396.35" z="0.00" type="priority" />
	<node id="10989752595" x="367594.59" y="5812056.84" z="0.00" type="priority" />
	<node id="10995232766" x="366177.00" y="5811943.98" z="0.00" type="priority" />
	<node id="11079338247" x="367211.37" y="5812659.75" z="0.00" type="traffic_light" />
	<node id="11358967423" x="367458.67" y="5813893.43" z="0.00" type="priority" />
	<node id="11358967424" x="367503.19" y="5813974.58" z="0.00" type="priority" />
	<node id="1141189557" x="365726.42" y="5814623.52" z="0.00" type="priority" />
	<node id="12139266041" x="367386.33" y="5813671.11" z="0.00" type="priority" />
	<node id="12161923828" x="367393.88" y="5813917.67" z="0.00" type="priority" />
	<node id="12161923833" x="367409.28" y="5813705.42" z="0.00" type="priority" />
	<node id="12161923837" x="366563.03" y="5814089.53" z="0.00" type="priority" />
	<node id="12161923839" x="366612.41" y="5814210.23" z="0.00" type="priority" />
	<node id="12161923840" x="366634.85" y="5814267.80" z="0.00" type="priority" />
	<node id="1403081922" x="367735.27" y="5814060.39" z="0.00" type="priority" />
	<node id="1403081956" x="367239.73" y="5814353.67" z="0.00" type="priority" />
	<node id="1403081992" x="367296.76" y="5814498.64" z="0.00" type="priority" />
	<node id="1409608602" x="366105.80" y="5811585.77" z="0.00" type="priority" />
	<node id="142399000" x="366570.58" y="5811499.08" z="0.00" type="priority" />
	<node id="142404975" x="366550.57" y="5811508.90" z="0.00" type="priority" />
	<node id="142405168" x="366497.25" y="5811520.58" z="0.00" type="priority" />
	<node id="142405658" x="366506.37" y="5811558.73" z="0.00" type="priority" />
	<node id="142405872" x="366530.60" y="5811635.37" z="0.00" type="priority" />
	<node id="142406256" x="366396.68" y="5811725.72" z="0.00" type="priority" />
	<node id="142408448" x="366400.71" y="5811398.89" z="0.00" type="priority" />
	<node id="142414501" x="367744.73" y="5811468.80" z="0.00" type="priority" />
	<node id="1461097374" x="367231.19" y="5812908.77" z="0.00" type="priority" />
	<node id="146447763" x="367281.74" y="5812085.34" z="0.00" type="priority" />
	<node id="146448343" x="367627.78" y="5812054.37" z="0.00" type="priority" />
	<node id="1576580813" x="371057.75" y="5814951.37" z="0.00" type="priority" />
	<node id="1762038627" x="366655.65" y="5811464.77" z="0.00" type="priority" />
	<node id="1762038709" x="366682.31" y="5811581.87" z="0.00" type="priority" />
	<node id="1783874206" x="367254.28" y="5812150.28" z="0.00" type="priority" />
	<node id="1783874207" x="367245.28" y="5812171.73" z="0.00" type="priority" />
	<node id="1808849395" x="366528.08" y="5811530.38" z="0.00" type="priority" />
	<node id="1986836620" x="367202.98" y="5812394.49" z="0.00" type="priority" />
	<node id="2027853945" x="367536.98" y="5811488.57" z="0.00" type="priority" />
	<node id="2027853947" x="367488.48" y="5811515.94" z="0.00" type="priority" />
	<node id="2071884626" x="367653.97" y="5810952.53" z="0.00" type="traffic_light" />
	<node id="2079641383" x="371375.31" y="5814654.87" z="0.00" type="priority" />
	<node id="2079641412" x="371410.10" y="5814578.73" z="0.00" type="priority" />
	<node id="2245582939" x="367511.73" y="5813971.41" z="0.00" type="priority" />
	<node id="2245582979" x="367568.04" y="5814119.71" z="0.00" type="priority" />
	<node id="2245583008" x="366552.19" y="5814232.78" z="0.00" type="priority" />
	<node id="2245583013" x="367201.15" y="5814258.50" z="0.00" type="priority" />
	<node id="2252551409" x="367408.30" y="5813825.37" z="0.00" type="priority" />
	<node id="2252551523" x="367520.13" y="5813967.44" z="0.00" type="priority" />
	<node id="2252551532" x="367515.85" y="5813982.25" z="0.00" type="priority" />
	<node id="2252614598" x="366790.24" y="5814244.85" z="0.00" type="priority" />
	<node id="2290417202" x="367715.60" y="5811423.28" z="0.00" type="priority" />
	<node id="2290417223" x="367526.21" y="5811484.76" z="0.00" type="priority" />
	<node id="2294548207" x="367697.06" y="5811428.18" z="0.00" type="priority" />
	<node id="2320906114" x="367599.98" y="5811178.98" z="0.00" type="priority" />
	<node id="2320906136" x="367662.87" y="5810954.64" z="0.00" type="traffic_light" />
	<node id="2320906139" x="367813.96" y="5810989.23" z="0.00" type="priority" />
	<node id="2347820273" x="367761.40" y="5811210.39" z="0.00" type="priority" />
	<node id="2374861494" x="371195.62" y="5815627.50" z="0.00" type="priority" />
	<node id="2429051316" x="366847.61" y="5813770.53" z="0.00" type="priority" />
	<node id="2429051378" x="366760.85" y="5813858.69" z="0.00" type="priority" />
	<node id="2453807115" x="371378.79" y="5814882.81" z="0.00" type="priority" />
	<node id="2453807139" x="371389.99" y="5815003.23" z="0.00" type="priority" />
	<node id="2453807144" x="371116.58" y="5815028.01" z="0.00" type="priority" />
	<node id="2453807158" x="371272.73" y="5815102.35" z="0.00" type="priority" />
	<node id="2453815469" x="371421.32" y="5815163.93" z="0.00" type="priority" />
	<node id="2471371515" x="371523.05" y="5814897.99" z="0.00" type="priority" />
	<node id="2471371516" x="371709.33" y="5815352.36" z="0.00" type="priority" />
	<node id="249585325" x="368148.11" y="5813695.67" z="0.00" type="priority" />
	<node id="249784279" x="371289.24" y="5813783.35" z="0.00" type="priority" />
	<node id="252271003" x="367201.69" y="5812321.11" z="0.00" type="priority" />
	<node id="252271018" x="366250.53" y="5812172.09" z="0.00" type="priority" />
	<node id="252271024" x="366392.94" y="5812168.76" z="0.00" type="priority" />
	<node id="252271028" x="366269.54" y="5812268.01" z="0.00" type="priority" />
	<node id="252271029" x="366215.72" y="5812280.20" z="0.00" type="priority" />
	<node id="252271030" x="366327.82" y="5812254.80" z="0.00" type="priority" />
	<node id="252271031" x="366299.10" y="5812379.78" z="0.00" type="priority" />
	<node id="252271033" x="366325.74" y="5812463.98" z="0.00" type="priority" />
	<node id="252271036" x="366354.57" y="5812364.30" z="0.00" type="priority" />
	<node id="252271037" x="366264.95" y="5812482.71" z="0.00" type="priority" />
	<node id="252271038" x="366389.49" y="5812443.01" z="0.00" type="priority" />
	<node id="252271040" x="366603.78" y="5812100.38" z="0.00" type="priority" />
	<node id="252271072" x="366906.81" y="5812379.10" z="0.00" type="priority" />
	<node id="253372959" x="366982.79" y="5811923.35" z="0.00" type="priority" />
	<node id="253830918" x="367019.44" y="5813250.47" z="0.00" type="priority" />
	<node id="253830930" x="366802.79" y="5813369.17" z="0.00" type="priority" />
	<node id="253831187" x="367210.73" y="5812639.63" z="0.00" type="priority" />
	<node id="254985133" x="367322.41" y="5812082.15" z="0.00" type="priority" />
	<node id="254985137" x="367226.42" y="5812218.94" z="0.00" type="priority" />
	<node id="254985145" x="367757.94" y="5812112.82" z="0.00" type="priority" />
	<node id="254985194" x="367303.75" y="5812226.77" z="0.00" type="priority" />
	<node id="255154989" x="367496.37" y="5812515.90" z="0.00" type="priority" />
	<node id="255154990" x="367612.04" y="5812455.13" z="0.00" type="priority" />
	<node id="255154991" x="367647.24" y="5812442.30" z="0.00" type="priority" />
	<node id="2573736145" x="367318.71" y="5813474.65" z="0.00" type="priority" />
	<node id="2573736146" x="367302.64" y="5813477.95" z="0.00" type="priority" />
	<node id="260576633" x="371634.35" y="5815633.31" z="0.00" type="priority" />
	<node id="264497341" x="371630.65" y="5813527.69" z="0.00" type="priority" />
	<node id="268130799" x="371071.32" y="5815099.93" z="0.00" type="priority" />
	<node id="268130800" x="371061.64" y="5815080.68" z="0.00" type="priority" />
	<node id="268130802" x="371050.97" y="5815112.50" z="0.00" type="priority" />
	<node id="268130804" x="371067.21" y="5815084.60" z="0.00" type="priority" />
	<node id="268130809" x="371115.05" y="5815080.28" z="0.00" type="priority" />
	<node id="268132141" x="370989.96" y="5815067.75" z="0.00" type="priority" />
	<node id="268132144" x="371075.94" y="5815163.20" z="0.00" type="priority" />
	<node id="27244825" x="367555.58" y="5811336.83" z="0.00" type="priority" />
	<node id="27244832" x="367526.00" y="5811394.24" z="0.00" type="priority" />
	<node id="27244837" x="367496.78" y="5811488.20" z="0.00" type="priority" />
	<node id="27244863" x="367360.95" y="5811891.41" z="0.00" type="priority" />
	<node id="27244866" x="367332.89" y="5811960.22" z="0.00" type="priority" />
	<node id="27244886" x="367209.50" y="5812265.63" z="0.00" type="priority" />
	<node id="27244905" x="367233.36" y="5812928.39" z="0.00" type="traffic_light" />
	<node id="27244938" x="367424.45" y="5813728.08" z="0.00" type="priority" />
	<node id="27244973" x="368216.82" y="5813908.82" z="0.00" type="priority" />
	<node id="27244982" x="368921.95" y="5813975.83" z="0.00" type="priority" />
	<node id="27245016" x="369444.38" y="5814236.51" z="0.00" type="priority" />
	<node id="27245021" x="370609.92" y="5814828.51" z="0.00" type="priority" />
	<node id="27245094" x="371048.65" y="5815080.46" z="0.00" type="priority" />
	<node id="27245106" x="371480.55" y="5815183.71" z="0.00" type="priority" />
	<node id="27324982" x="371645.69" y="5815242.30" z="0.00" type="priority" />
	<node id="2766536021" x="366214.69" y="5812590.39" z="0.00" type="priority" />
	<node id="2766536022" x="366215.76" y="5812617.51" z="0.00" type="priority" />
	<node id="277790654" x="366154.35" y="5811998.15" z="0.00" type="priority" />
	<node id="277799142" x="371701.36" y="5815336.26" z="0.00" type="priority" />
	<node id="278790739" x="367792.14" y="5813949.99" z="0.00" type="priority" />
	<node id="279334115" x="366211.07" y="5812177.73" z="0.00" type="priority" />
	<node id="282664080" x="371403.53" y="5814555.43" z="0.00" type="priority" />
	<node id="282664431" x="371419.02" y="5813282.38" z="0.00" type="priority" />
	<node id="282668685" x="367795.17" y="5813944.15" z="0.00" type="priority" />
	<node id="282668829" x="367242.63" y="5812925.62" z="0.00" type="priority" />
	<node id="286689834" x="367260.45" y="5812632.98" z="0.00" type="priority" />
	<node id="2894959909" x="366352.43" y="5812539.18" z="0.00" type="priority" />
	<node id="2894959914" x="366482.40" y="5812493.69" z="0.00" type="priority" />
	<node id="2894959920" x="366616.45" y="5812453.61" z="0.00" type="priority" />
	<node id="2894959922" x="366692.74" y="5812431.55" z="0.00" type="priority" />
	<node id="2953733190" x="366530.59" y="5812151.02" z="0.00" type="priority" />
	<node id="2953733388" x="366198.43" y="5812132.16" z="0.00" type="priority" />
	<node id="2953733394" x="366157.83" y="5812344.92" z="0.00" type="priority" />
	<node id="2953733397" x="366166.57" y="5812374.70" z="0.00" type="priority" />
	<node id="301815232" x="371496.63" y="5813665.87" z="0.00" type="priority" />
	<node id="301819379" x="370953.29" y="5813306.75" z="0.00" type="priority" />
	<node id="301819419" x="370735.34" y="5813887.63" z="0.00" type="priority" />
	<node id="301819424" x="370719.57" y="5814130.74" z="0.00" type="priority" />
	<node id="301819425" x="370601.42" y="5814208.36" z="0.00" type="priority" />
	<node id="301819548" x="371364.08" y="5815005.57" z="0.00" type="priority" />
	<node id="301819549" x="371370.87" y="5815076.36" z="0.00" type="priority" />
	<node id="301819552" x="371270.84" y="5815113.70" z="0.00" type="priority" />
	<node id="301825449" x="371413.81" y="5815300.45" z="0.00" type="priority" />
	<node id="301825450" x="371277.98" y="5815411.44" z="0.00" type="priority" />
	<node id="304417074" x="371653.03" y="5813699.38" z="0.00" type="priority" />
	<node id="3048303562" x="371399.14" y="5813586.91" z="0.00" type="priority" />
	<node id="3052714154" x="370798.31" y="5814940.57" z="0.00" type="priority" />
	<node id="31920783" x="371034.18" y="5814532.55" z="0.00" type="priority" />
	<node id="31920817" x="371049.72" y="5814800.17" z="0.00" type="priority" />
	<node id="31920901" x="371345.29" y="5814027.49" z="0.00" type="priority" />
	<node id="31920921" x="370780.96" y="5814900.68" z="0.00" type="priority" />
	<node id="31920956" x="371026.55" y="5814032.14" z="0.00" type="priority" />
	<node id="31921014" x="371126.85" y="5814532.77" z="0.00" type="priority" />
	<node id="31921040" x="371421.39" y="5815000.40" z="0.00" type="priority" />
	<node id="31921078" x="371054.77" y="5814876.92" z="0.00" type="priority" />
	<node id="31921141" x="371350.54" y="5814257.46" z="0.00" type="priority" />
	<node id="31921169" x="371468.28" y="5814758.75" z="0.00" type="priority" />
	<node id="31921183" x="371118.66" y="5814030.78" z="0.00" type="priority" />
	<node id="31921233" x="371225.59" y="5814523.53" z="0.00" type="priority" />
	<node id="31921246" x="370853.23" y="5814528.91" z="0.00" type="priority" />
	<node id="31921362" x="370933.87" y="5814643.28" z="0.00" type="priority" />
	<node id="31921384" x="370930.19" y="5814528.20" z="0.00" type="priority" />
	<node id="31921390" x="371376.24" y="5814774.15" z="0.00" type="priority" />
	<node id="31921403" x="371120.87" y="5814260.17" z="0.00" type="priority" />
	<node id="31921437" x="370830.27" y="5814815.26" z="0.00" type="priority" />
	<node id="31921462" x="371385.11" y="5814493.24" z="0.00" type="priority" />
	<node id="31921484" x="371209.84" y="5814029.42" z="0.00" type="priority" />
	<node id="31921532" x="370922.99" y="5814035.42" z="0.00" type="priority" />
	<node id="31921537" x="371256.74" y="5814780.46" z="0.00" type="priority" />
	<node id="31921551" x="371567.03" y="5815091.31" z="0.00" type="priority" />
	<node id="31921561" x="371221.41" y="5814259.99" z="0.00" type="priority" />
	<node id="31921576" x="371279.45" y="5815013.20" z="0.00" type="priority" />
	<node id="31944012" x="371067.57" y="5815107.22" z="0.00" type="priority" />
	<node id="31944041" x="371041.83" y="5815085.43" z="0.00" type="priority" />
	<node id="32033044" x="370921.82" y="5813948.10" z="0.00" type="priority" />
	<node id="32033046" x="370888.66" y="5813696.03" z="0.00" type="priority" />
	<node id="32033048" x="370869.05" y="5813597.70" z="0.00" type="priority" />
	<node id="32033054" x="370998.06" y="5813702.14" z="0.00" type="priority" />
	<node id="32033063" x="371094.86" y="5813709.48" z="0.00" type="priority" />
	<node id="32033103" x="371183.53" y="5813720.64" z="0.00" type="priority" />
	<node id="32033116" x="371382.12" y="5813590.30" z="0.00" type="priority" />
	<node id="32033127" x="370878.12" y="5814036.37" z="0.00" type="priority" />
	<node id="32033154" x="370931.43" y="5813368.25" z="0.00" type="priority" />
	<node id="32033156" x="371049.97" y="5813408.01" z="0.00" type="priority" />
	<node id="32033157" x="371164.07" y="5813457.76" z="0.00" type="priority" />
	<node id="32033158" x="371262.54" y="5813501.86" z="0.00" type="priority" />
	<node id="32033164" x="370803.85" y="5813342.75" z="0.00" type="priority" />
	<node id="32033165" x="370701.97" y="5813742.93" z="0.00" type="priority" />
	<node id="32033167" x="370782.96" y="5813716.83" z="0.00" type="priority" />
	<node id="32033174" x="370707.95" y="5813375.40" z="0.00" type="priority" />
	<node id="327572504" x="367467.67" y="5812708.46" z="0.00" type="priority" />
	<node id="327572511" x="367496.39" y="5812757.73" z="0.00" type="priority" />
	<node id="327572518" x="367537.94" y="5812732.77" z="0.00" type="priority" />
	<node id="327572524" x="367601.31" y="5812692.77" z="0.00" type="priority" />
	<node id="327572547" x="367497.42" y="5812682.09" z="0.00" type="priority" />
	<node id="327572595" x="367401.51" y="5812830.63" z="0.00" type="priority" />
	<node id="327572599" x="367349.49" y="5812862.77" z="0.00" type="priority" />
	<node id="327572618" x="367253.03" y="5812861.17" z="0.00" type="priority" />
	<node id="327579072" x="367428.94" y="5812651.99" z="0.00" type="priority" />
	<node id="327579087" x="367365.53" y="5812577.87" z="0.00" type="priority" />
	<node id="327579096" x="367364.88" y="5812769.99" z="0.00" type="priority" />
	<node id="327579119" x="367331.17" y="5812714.99" z="0.00" type="priority" />
	<node id="327587554" x="367260.88" y="5812748.15" z="0.00" type="priority" />
	<node id="327587572" x="367359.15" y="5812907.03" z="0.00" type="priority" />
	<node id="327587580" x="367412.41" y="5812936.21" z="0.00" type="priority" />
	<node id="327587590" x="367459.88" y="5812992.72" z="0.00" type="priority" />
	<node id="330326886" x="367564.73" y="5811317.97" z="0.00" type="priority" />
	<node id="33041284" x="366660.65" y="5813849.92" z="0.00" type="priority" />
	<node id="33041285" x="367205.70" y="5812948.92" z="0.00" type="priority" />
	<node id="33041585" x="366994.42" y="5810954.83" z="0.00" type="priority" />
	<node id="33041587" x="366591.45" y="5810610.37" z="0.00" type="priority" />
	<node id="33041729" x="367068.37" y="5810899.56" z="0.00" type="priority" />
	<node id="3323258414" x="371139.51" y="5815056.09" z="0.00" type="priority" />
	<node id="3323258418" x="371136.00" y="5815077.42" z="0.00" type="priority" />
	<node id="3364664648" x="367218.88" y="5812798.88" z="0.00" type="priority" />
	<node id="3364664649" x="367241.42" y="5812988.59" z="0.00" type="priority" />
	<node id="3559230493" x="367710.03" y="5810712.62" z="0.00" type="priority" />
	<node id="3559230494" x="368296.84" y="5813909.36" z="0.00" type="priority" />
	<node id="3559230499" x="369065.52" y="5814045.15" z="0.00" type="priority" />
	<node id="3559230500" x="369105.71" y="5814066.13" z="0.00" type="priority" />
	<node id="3559230501" x="369581.47" y="5814305.14" z="0.00" type="priority" />
	<node id="3559230502" x="370652.17" y="5814852.52" z="0.00" type="priority" />
	<node id="3650189774" x="367268.53" y="5812116.57" z="0.00" type="priority" />
	<node id="3650189776" x="367263.76" y="5812128.27" z="0.00" type="traffic_light" />
	<node id="3650189778" x="367258.75" y="5812140.04" z="0.00" type="priority" />
	<node id="3695097282" x="367361.08" y="5813697.77" z="0.00" type="priority" />
	<node id="377195453" x="371477.92" y="5813330.33" z="0.00" type="priority" />
	<node id="377195468" x="371424.68" y="5813351.56" z="0.00" type="priority" />
	<node id="377195904" x="371226.35" y="5813323.52" z="0.00" type="priority" />
	<node id="377197949" x="370638.88" y="5813478.03" z="0.00" type="priority" />
	<node id="3808993303" x="367522.14" y="5811406.33" z="0.00" type="priority" />
	<node id="3825037551" x="367620.46" y="5813868.84" z="0.00" type="priority" />
	<node id="382701226" x="371057.58" y="5814947.13" z="0.00" type="priority" />
	<node id="382701236" x="370926.81" y="5814933.14" z="0.00" type="priority" />
	<node id="382701238" x="370922.36" y="5814888.36" z="0.00" type="priority" />
	<node id="382701249" x="370874.72" y="5814892.51" z="0.00" type="priority" />
	<node id="3883455020" x="371532.15" y="5815291.35" z="0.00" type="priority" />
	<node id="3883497885" x="371245.24" y="5815324.21" z="0.00" type="priority" />
	<node id="388371039" x="371271.82" y="5813714.93" z="0.00" type="priority" />
	<node id="388381792" x="370606.86" y="5813750.74" z="0.00" type="priority" />
	<node id="388383905" x="370839.21" y="5814036.71" z="0.00" type="priority" />
	<node id="388384240" x="370662.95" y="5814171.10" z="0.00" type="priority" />
	<node id="388387025" x="369671.38" y="5814350.56" z="0.00" type="priority" />
	<node id="388387675" x="370442.45" y="5814740.95" z="0.00" type="priority" />
	<node id="388390387" x="369528.72" y="5814278.84" z="0.00" type="priority" />
	<node id="388390785" x="369344.37" y="5814186.50" z="0.00" type="priority" />
	<node id="390036585" x="366653.29" y="5813862.89" z="0.00" type="priority" />
	<node id="390036600" x="368160.00" y="5813910.72" z="0.00" type="priority" />
	<node id="390368486" x="371092.23" y="5813311.42" z="0.00" type="priority" />
	<node id="390526837" x="371056.15" y="5814911.40" z="0.00" type="priority" />
	<node id="390528189" x="371389.27" y="5814881.72" z="0.00" type="priority" />
	<node id="3917510224" x="367213.97" y="5812731.16" z="0.00" type="priority" />
	<node id="3917536830" x="367550.32" y="5811333.74" z="0.00" type="priority" />
	<node id="3917537558" x="369280.42" y="5814039.42" z="0.00" type="priority" />
	<node id="3917537559" x="369282.62" y="5814066.81" z="0.00" type="priority" />
	<node id="3917537562" x="369348.43" y="5814147.14" z="0.00" type="priority" />
	<node id="3927518269" x="371376.80" y="5815149.07" z="0.00" type="priority" />
	<node id="420519037" x="370614.27" y="5814822.22" z="0.00" type="priority" />
	<node id="4487526497" x="367296.01" y="5813371.07" z="0.00" type="priority" />
	<node id="450100590" x="367220.50" y="5813503.63" z="0.00" type="priority" />
	<node id="450111837" x="367478.89" y="5813885.86" z="0.00" type="priority" />
	<node id="450111839" x="367116.97" y="5814021.32" z="0.00" type="priority" />
	<node id="450111859" x="366914.42" y="5813959.97" z="0.00" type="priority" />
	<node id="450112961" x="367602.35" y="5814212.29" z="0.00" type="priority" />
	<node id="450112965" x="367470.59" y="5813860.62" z="0.00" type="priority" />
	<node id="4760324635" x="367578.83" y="5811263.50" z="0.00" type="priority" />
	<node id="488598745" x="367470.37" y="5811281.71" z="0.00" type="priority" />
	<node id="488599361" x="367163.34" y="5811388.08" z="0.00" type="priority" />
	<node id="488627451" x="367444.72" y="5812120.40" z="0.00" type="priority" />
	<node id="4994644960" x="371174.18" y="5815081.44" z="0.00" type="priority" />
	<node id="5169469917" x="371361.83" y="5815254.26" z="0.00" type="priority" />
	<node id="5169470122" x="371405.81" y="5815158.68" z="0.00" type="priority" />
	<node id="5253863931" x="367699.37" y="5810962.86" z="0.00" type="priority" />
	<node id="5253863943" x="367770.80" y="5810862.61" z="0.00" type="priority" />
	<node id="5253863957" x="367713.00" y="5810906.60" z="0.00" type="priority" />
	<node id="5275063170" x="367709.82" y="5810919.43" z="0.00" type="priority" />
	<node id="5484775231" x="366553.70" y="5812143.82" z="0.00" type="priority" />
	<node id="58485604" x="364620.49" y="5810998.89" z="0.00" type="priority" />
	<node id="58485614" x="365917.86" y="5811614.94" z="0.00" type="priority" />
	<node id="58485622" x="366517.81" y="5811516.69" z="0.00" type="priority" />
	<node id="6001977070" x="371374.14" y="5814883.29" z="0.00" type="priority" />
	<node id="6001977071" x="371363.66" y="5814884.26" z="0.00" type="priority" />
	<node id="620823555" x="371078.06" y="5815031.39" z="0.00" type="priority" />
	<node id="620823558" x="371038.77" y="5815101.18" z="0.00" type="priority" />
	<node id="620823593" x="371499.61" y="5815190.07" z="0.00" type="priority" />
	<node id="6224883233" x="371177.43" y="5815069.85" z="0.00" type="priority" />
	<node id="6364767124" x="367735.19" y="5810911.82" z="0.00" type="priority" />
	<node id="6364767125" x="371058.72" y="5814975.63" z="0.00" type="priority" />
	<node id="6364833227" x="371084.59" y="5814908.87" z="0.00" type="priority" />
	<node id="6364833228" x="371070.58" y="5814910.11" z="0.00" type="priority" />
	<node id="6823096354" x="367722.17" y="5810868.73" z="0.00" type="priority" />
	<node id="687635013" x="371059.04" y="5815037.20" z="0.00" type="priority" />
	<node id="7273380859" x="367722.50" y="5810908.83" z="0.00" type="priority" />
	<node id="7430961145" x="370874.30" y="5814141.92" z="0.00" type="priority" />
	<node id="7461931558" x="365896.88" y="5811802.78" z="0.00" type="priority" />
	<node id="7462673855" x="366187.90" y="5811889.24" z="0.00" type="priority" />
	<node id="8548753601" x="367308.72" y="5812847.37" z="0.00" type="priority" />
	<node id="8603210818" x="371344.25" y="5813098.84" z="0.00" type="priority" />
	<node id="8615916281" x="367520.46" y="5811397.08" z="0.00" type="priority" />
	<node id="8955938501" x="366773.06" y="5813630.35" z="0.00" type="priority" />
	<node id="9261737967" x="369343.66" y="5814091.48" z="0.00" type="priority" />
	<node id="9261765766" x="369500.51" y="5814027.57" z="0.00" type="priority" />
	<node id="928501898" x="370840.89" y="5814710.81" z="0.00" type="priority" />
	<node id="928501933" x="371140.55" y="5815254.33" z="0.00" type="priority" />
	<node id="928501940" x="370972.61" y="5814706.49" z="0.00" type="priority" />
	<node id="928501942" x="371143.77" y="5815335.64" z="0.00" type="priority" />
	<node id="928501963" x="370623.79" y="5814805.73" z="0.00" type="priority" />
	<node id="928501965" x="371166.34" y="5815331.52" z="0.00" type="priority" />
	<node id="928501997" x="370785.91" y="5814824.44" z="0.00" type="priority" />
	<node id="929466848" x="367374.15" y="5813684.24" z="0.00" type="priority" />
	<node id="929466851" x="367282.64" y="5813384.38" z="0.00" type="priority" />
	<node id="929466855" x="367199.08" y="5813411.89" z="0.00" type="priority" />
	<node id="9417910001" x="371405.75" y="5814563.31" z="0.00" type="priority" />
	<node id="9605298581" x="371012.31" y="5813703.22" z="0.00" type="priority" />
	<node id="9605301626" x="370977.98" y="5813701.02" z="0.00" type="priority" />
	<node id="9663592388" x="367560.49" y="5813840.64" z="0.00" type="priority" />
	<node id="9935408170" x="367456.73" y="5811632.15" z="0.00" type="priority" />
	<node id="9935408171" x="367466.56" y="5811608.10" z="0.00" type="priority" />
</nodes>
