<?xml version="1.0" ?>
<!-- Generated by MOSAIC scenario-convert 24.1 -->
<routes>
	<vType id="default" length="7.5" maxSpeed="50" minGap="2.0" carFollowModel="Krauss" accel="0.80" decel="4.5" sigma="0.5" tau="1"/>
	<route id="1" edges="301172577_268132141_3052714154 350169726_3052714154_3559230502 350169721_3559230502_27245021 301172578_27245021_388387675" />
</routes>