<connections>
	<connection from="350169727_388390785_27245016" to="350169727_27245016_388390785" />
	<connection from="350169727_388390785_27245016" to="379156870_27245016_388390387" />
	<connection from="665045753_301819552_2453807158" to="27492579_2453807158_31921576" />
	<connection from="1184003930_7462673855_10995232766" to="1184003930_10995232766_7462673855" />
	<connection from="1184003930_7462673855_10995232766" to="1184003941_10995232766_7462673855" />
	<connection from="1184003930_7462673855_10995232766" to="1184003930_10995232766_277790654" />
	<connection from="13864428_58485614_58485604" to="13864428_58485604_58485614" />
	<connection from="929163021_3650189774_3650189776" to="929163021_3650189776_3650189774" />
	<connection from="929163021_3650189774_3650189776" to="28484736_3650189776_3650189778" />
	<connection from="104803383_1783874206_3650189778" to="28484736_3650189778_3650189776" />
	<connection from="104803383_1783874206_3650189778" to="104803383_3650189778_1783874206" />
	<connection from="98641842_1141189557_390036585" to="38198450_390036585_2429051378" />
	<connection from="98641842_1141189557_390036585" to="98641842_390036585_1141189557" />
	<connection from="98641842_1141189557_390036585" to="1267758439_390036585_33041284" />
	<connection from="79564303_928501942_928501965" to="79564303_928501965_3883497885" />
	<connection from="79564303_928501942_928501965" to="79564303_928501965_928501942" />
	<connection from="79564303_928501942_928501965" to="79564294_928501965_928501933" />
	<connection from="29734037_327587580_327572595" to="29734037_327572595_327587580" />
	<connection from="29734037_327587580_327572595" to="29733448_327572595_327572511" />
	<connection from="29734037_327587580_327572595" to="29733630_327572595_327579096" />
	<connection from="29734037_327587580_327572595" to="1183433944_327572595_327572599" />
	<connection from="377522908_3808993303_27244837" to="1084215665_27244837_2027853947" />
	<connection from="377522908_3808993303_27244837" to="377522908_27244837_3808993303" />
	<connection from="23563281_286689834_327579087" to="23563281_327579087_255154989" />
	<connection from="23563281_286689834_327579087" to="23563281_327579087_286689834" />
	<connection from="23563281_286689834_327579087" to="1183433941_327579087_327579072" />
	<connection from="1043698011_9605298581_32033063" to="34078032_32033063_31921183" />
	<connection from="1043698011_9605298581_32033063" to="1043698011_32033063_9605298581" />
	<connection from="1043698011_9605298581_32033063" to="1043698011_32033063_32033103" />
	<connection from="1043698011_9605298581_32033063" to="34078032_32033063_32033157" />
	<connection from="38199927_2245582979_450112961" to="38199927_450112961_2245582979" />
	<connection from="38199927_2245582979_450112961" to="1313982061_450112961_1403081956" />
	<connection from="396693237_2290417202_2294548207" to="192223580_2294548207_2027853945" />
	<connection from="396693237_2290417202_2294548207" to="192223580_2294548207_2290417202" />
	<connection from="396693237_2290417202_2294548207" to="396693237_2294548207_2290417202" />
	<connection from="38041501_31921183_31920956" to="34067638_31920956_32033054" />
	<connection from="38041501_31921183_31920956" to="38041501_31920956_31921183" />
	<connection from="38041501_31921183_31920956" to="653799075_31920956_31921532" />
	<connection from="38041501_31921183_31920956" to="427702902_31920956_1057024981" />
	<connection from="427702902_1057024981_31920956" to="34067638_31920956_32033054" />
	<connection from="427702902_1057024981_31920956" to="38041501_31920956_31921183" />
	<connection from="427702902_1057024981_31920956" to="653799075_31920956_31921532" />
	<connection from="427702902_1057024981_31920956" to="427702902_31920956_1057024981" />
	<connection from="27492581_31921040_390528189" to="27492581_390528189_31921040" />
	<connection from="27492581_31921040_390528189" to="636481010_390528189_2453807115" />
	<connection from="27492581_31921040_390528189" to="27492581_390528189_31921390" />
	<connection from="79564290_928501940_928501898" to="79564290_928501898_928501940" />
	<connection from="79564290_928501940_928501898" to="4898660_928501898_31921246" />
	<connection from="79564290_928501940_928501898" to="4898660_928501898_31921437" />
	<connection from="223161840_2320906136_2071884626" to="350169733_2071884626_2320906114" />
	<connection from="223161840_2320906136_2071884626" to="223161840_2071884626_2320906136" />
	<connection from="223161840_2320906136_2071884626" to="658405367_2071884626_3559230493" />
	<connection from="1043698011_32033063_32033103" to="4906386_32033103_31921484" />
	<connection from="1043698011_32033063_32033103" to="4906365_32033103_32033158" />
	<connection from="1043698011_32033063_32033103" to="1043698011_32033103_32033063" />
	<connection from="699977836_31921532_32033127" to="920982039_32033127_7430961145" />
	<connection from="699977836_31921532_32033127" to="699977836_32033127_388383905" />
	<connection from="699977836_31921532_32033127" to="699977836_32033127_31921532" />
	<connection from="699976694_32033046_32033048" to="699976694_32033048_32033046" />
	<connection from="699976694_32033046_32033048" to="699976694_32033048_32033154" />
	<connection from="699976694_32033046_32033048" to="34080088_32033048_32033164" />
	<connection from="4441604_146447763_27244866" to="91214452_27244866_27244863" />
	<connection from="4441604_146447763_27244866" to="4441604_27244866_146447763" />
	<connection from="37528407_31920783_31921014" to="4898675_31921014_31921403" />
	<connection from="37528407_31920783_31921014" to="37528407_31921014_31921233" />
	<connection from="379156870_27245016_388390387" to="379156870_388390387_27245016" />
	<connection from="379156870_27245016_388390387" to="79564299_388390387_9261765766" />
	<connection from="379156870_27245016_388390387" to="350169725_388390387_3559230501" />
	<connection from="384994898_301819552_928501933" to="384994898_928501933_301819552" />
	<connection from="384994898_301819552_928501933" to="79564294_928501933_928501965" />
	<connection from="301172581_2374861494_928501942" to="24669262_928501942_268132144" />
	<connection from="301172581_2374861494_928501942" to="79564303_928501942_928501965" />
	<connection from="301172581_2374861494_928501942" to="301172581_928501942_2374861494" />
	<connection from="4898710_27245021_420519037" to="4898710_420519037_27245021" />
	<connection from="4898710_27245021_420519037" to="223013774_420519037_928501963" />
	<connection from="1183433940_327572511_327572518" to="1183433940_327572518_327572511" />
	<connection from="699977389_301819419_388383905" to="699977836_388383905_32033127" />
	<connection from="699977389_301819419_388383905" to="699977836_388383905_301819424" />
	<connection from="699977389_301819419_388383905" to="699977389_388383905_301819419" />
	<connection from="1183433944_327572618_8548753601" to="1183433944_8548753601_327572618" />
	<connection from="1183433944_327572618_8548753601" to="29734035_8548753601_327587572" />
	<connection from="1183433944_327572618_8548753601" to="1183433944_8548753601_327572599" />
	<connection from="379156871_278790739_3825037551" to="379156871_3825037551_278790739" />
	<connection from="379156871_278790739_3825037551" to="1051566880_3825037551_9663592388" />
	<connection from="223161840_5253863931_2320906136" to="223161840_2320906136_5253863931" />
	<connection from="223161840_5253863931_2320906136" to="223161840_2320906136_2071884626" />
	<connection from="126600481_2252551523_1403081922" to="126600481_1403081922_1403081992" />
	<connection from="126600481_2252551523_1403081922" to="215139316_1403081922_2245582979" />
	<connection from="126600481_2252551523_1403081922" to="126600481_1403081922_2252551523" />
	<connection from="169726303_142405658_7462673855" to="169726303_7462673855_142405658" />
	<connection from="169726303_142405658_7462673855" to="1184003930_7462673855_10995232766" />
	<connection from="169726303_142405658_7462673855" to="1184003941_7462673855_10995232766" />
	<connection from="783698466_33041729_33041585" to="219112967_33041585_33041587" />
	<connection from="783698466_33041729_33041585" to="360476804_33041585_488598745" />
	<connection from="783698466_33041729_33041585" to="783698466_33041585_33041729" />
	<connection from="294339097_620823593_27324982" to="24669260_27324982_277799142" />
	<connection from="294339097_620823593_27324982" to="679248750_27324982_31921551" />
	<connection from="294339097_620823593_27324982" to="294339097_27324982_620823593" />
	<connection from="263828071_268130800_268130804" to="263828071_268130804_268130799" />
	<connection from="263828071_268130800_268130804" to="4449161_268130804_268130809" />
	<connection from="34078032_32033063_31921183" to="34078032_31921183_32033063" />
	<connection from="34078032_32033063_31921183" to="38041501_31921183_31920956" />
	<connection from="34078032_32033063_31921183" to="38041501_31921183_31921484" />
	<connection from="34078032_32033063_31921183" to="4898675_31921183_31921403" />
	<connection from="4449161_268130804_268130809" to="24669028_268130809_268130799" />
	<connection from="4449161_268130804_268130809" to="967292599_268130809_3323258418" />
	<connection from="23303803_252271028_252271029" to="23303803_252271029_252271028" />
	<connection from="23303798_2894959914_2894959909" to="23303798_2894959909_2766536021" />
	<connection from="23303798_2894959914_2894959909" to="23303798_2894959909_2894959914" />
	<connection from="23303798_2894959914_2894959909" to="23303804_2894959909_252271033" />
	<connection from="246509767_253831187_11079338247" to="246509767_11079338247_3917510224" />
	<connection from="246509767_253831187_11079338247" to="246509767_11079338247_253831187" />
	<connection from="277979895_252271024_2894959914" to="277979895_2894959914_252271024" />
	<connection from="277979895_252271024_2894959914" to="225935757_2894959914_2894959920" />
	<connection from="277979895_252271024_2894959914" to="23303798_2894959914_2894959909" />
	<connection from="1313982056_12161923828_12161923833" to="379156867_12161923833_27244938" />
	<connection from="1313982056_12161923828_12161923833" to="379156867_12161923833_12139266041" />
	<connection from="1313982056_12161923828_12161923833" to="1313982056_12161923833_12161923828" />
	<connection from="1181203256_27244905_1461097374" to="329578498_1461097374_3364664648" />
	<connection from="1181203256_27244905_1461097374" to="1181203256_1461097374_27244905" />
	<connection from="4906372_32033046_32033044" to="699977154_32033044_32033167" />
	<connection from="4906372_32033046_32033044" to="4906372_32033044_31921532" />
	<connection from="4906372_32033046_32033044" to="4906372_32033044_32033046" />
	<connection from="126600481_11358967424_2252614598" to="1313982053_2252614598_12161923840" />
	<connection from="126600481_11358967424_2252614598" to="126600481_2252614598_11358967424" />
	<connection from="380314289_929466855_450100590" to="380314289_450100590_929466855" />
	<connection from="38199927_450112965_450111837" to="1315460469_450111837_11358967423" />
	<connection from="38199927_450112965_450111837" to="38199927_450111837_450112965" />
	<connection from="38199927_450112965_450111837" to="38199927_450111837_2245582939" />
	<connection from="27493075_620823593_301825449" to="384994899_301825449_3883455020" />
	<connection from="27493075_620823593_301825449" to="27493075_301825449_301825450" />
	<connection from="27493075_620823593_301825449" to="27493075_301825449_620823593" />
	<connection from="1157783193_10767211639_10767186258" to="1157783193_10767186258_10767211639" />
	<connection from="1157783193_10767211639_10767186258" to="1157783192_10767186258_10767186257" />
	<connection from="1084215666_9935408171_9935408170" to="16308222_9935408170_27244863" />
	<connection from="1084215666_9935408171_9935408170" to="1084215666_9935408170_9935408171" />
	<connection from="699977836_32033127_388383905" to="699977836_388383905_32033127" />
	<connection from="699977836_32033127_388383905" to="699977836_388383905_301819424" />
	<connection from="699977836_32033127_388383905" to="699977389_388383905_301819419" />
	<connection from="29733630_327579096_327579119" to="29733630_327579119_327587554" />
	<connection from="29733630_327579096_327579119" to="29733630_327579119_327579096" />
	<connection from="29733630_327579096_327579119" to="29734034_327579119_327579072" />
	<connection from="379156867_4487526497_2573736145" to="379156867_2573736145_12139266041" />
	<connection from="379156867_4487526497_2573736145" to="251085970_2573736145_2573736146" />
	<connection from="379156867_4487526497_2573736145" to="379156867_2573736145_4487526497" />
	<connection from="35590348_268132144_268130802" to="263828071_268130802_620823558" />
	<connection from="43394022_1762038627_142399000" to="51112331_142399000_142404975" />
	<connection from="43394022_1762038627_142399000" to="43394022_142399000_1762038627" />
	<connection from="1183433944_8548753601_327572618" to="1183433944_327572618_8548753601" />
	<connection from="1183433944_8548753601_327572618" to="26180063_327572618_327587554" />
	<connection from="1183433944_8548753601_327572618" to="26180063_327572618_282668829" />
	<connection from="23133776_31921551_2471371515" to="679745971_2471371515_31921169" />
	<connection from="23133776_31921551_2471371515" to="23133776_2471371515_31921551" />
	<connection from="679248749_6364767125_1576580813" to="994046349_1576580813_382701226" />
	<connection from="679248749_6364767125_1576580813" to="679248749_1576580813_6364767125" />
	<connection from="350169722_3559230501_388387025" to="301172576_388387025_388387675" />
	<connection from="350169722_3559230501_388387025" to="350169722_388387025_3559230501" />
	<connection from="350169728_3559230494_27244982" to="301172579_27244982_3559230499" />
	<connection from="350169728_3559230494_27244982" to="350169728_27244982_3559230494" />
	<connection from="98641842_390036585_1141189557" to="98641842_1141189557_390036585" />
	<connection from="4906363_9605301626_32033046" to="4906363_32033046_32033167" />
	<connection from="4906363_9605301626_32033046" to="699976694_32033046_32033048" />
	<connection from="4906363_9605301626_32033046" to="4906372_32033046_32033044" />
	<connection from="4906363_9605301626_32033046" to="4906363_32033046_9605301626" />
	<connection from="34078032_32033063_32033157" to="4906380_32033157_32033156" />
	<connection from="34078032_32033063_32033157" to="34078032_32033157_32033063" />
	<connection from="34078032_32033063_32033157" to="4906380_32033157_32033158" />
	<connection from="34078032_32033063_32033157" to="34078032_32033157_377195904" />
	<connection from="34068269_377195453_377195468" to="34067931_377195468_282664431" />
	<connection from="34068269_377195453_377195468" to="34068269_377195468_377195453" />
	<connection from="34068269_377195453_377195468" to="4906390_377195468_32033116" />
	<connection from="104803383_3650189778_1783874206" to="104803383_1783874206_3650189778" />
	<connection from="104803383_3650189778_1783874206" to="679256468_1783874206_1783874207" />
	<connection from="23133776_2471371515_31921551" to="23133776_31921551_2471371515" />
	<connection from="23133776_2471371515_31921551" to="679248750_31921551_27324982" />
	<connection from="427702903_1057024972_1057025008" to="91018720_1057025008_1057024981" />
	<connection from="427702903_1057024972_1057025008" to="994046350_1057025008_31920783" />
	<connection from="79650838_2894959920_2953733190" to="79650838_2953733190_10973919932" />
	<connection from="79650838_2894959920_2953733190" to="570488833_2953733190_5484775231" />
	<connection from="79650838_2894959920_2953733190" to="79650838_2953733190_2894959920" />
	<connection from="24669262_928501942_268132144" to="24669262_268132144_928501942" />
	<connection from="24669262_928501942_268132144" to="35590348_268132144_268130802" />
	<connection from="4906385_32033116_3048303562" to="27492004_3048303562_301815232" />
	<connection from="4906385_32033116_3048303562" to="4906385_3048303562_32033116" />
	<connection from="4906385_32033116_3048303562" to="4906385_3048303562_264497341" />
	<connection from="26180063_327572618_327587554" to="26180063_327587554_286689834" />
	<connection from="26180063_327572618_327587554" to="26180063_327587554_327572618" />
	<connection from="26180063_327572618_327587554" to="29733630_327587554_327579119" />
	<connection from="4898657_31921384_31921246" to="4898660_31921246_928501898" />
	<connection from="4898657_31921384_31921246" to="4898660_31921246_7430961145" />
	<connection from="4898657_31921384_31921246" to="4898657_31921246_31921384" />
	<connection from="396693238_2290417223_2027853945" to="396693238_2027853945_2290417223" />
	<connection from="396693238_2290417223_2027853945" to="192223580_2027853945_2294548207" />
	<connection from="653799075_31921532_31920956" to="34067638_31920956_32033054" />
	<connection from="653799075_31921532_31920956" to="38041501_31920956_31921183" />
	<connection from="653799075_31921532_31920956" to="653799075_31920956_31921532" />
	<connection from="653799075_31921532_31920956" to="427702902_31920956_1057024981" />
	<connection from="4441604_27244866_146447763" to="4441604_146447763_3650189774" />
	<connection from="4441604_27244866_146447763" to="14825635_146447763_254985133" />
	<connection from="4441604_27244866_146447763" to="4441604_146447763_27244866" />
	<connection from="1313982056_12161923833_12161923828" to="1315460469_12161923828_450111839" />
	<connection from="1313982056_12161923833_12161923828" to="1313982056_12161923828_12161923833" />
	<connection from="1313982056_12161923833_12161923828" to="1315460469_12161923828_11358967423" />
	<connection from="427702903_1057024981_1057024972" to="91018717_1057024972_31921403" />
	<connection from="427702903_1057024981_1057024972" to="427702903_1057024972_1057025008" />
	<connection from="389583434_2453815469_5169470122" to="532765718_5169470122_5169469917" />
	<connection from="389583434_2453815469_5169470122" to="389583434_5169470122_2453815469" />
	<connection from="389583434_2453815469_5169470122" to="389583434_5169470122_3927518269" />
	<connection from="291863024_2953733388_279334115" to="291863024_279334115_2953733388" />
	<connection from="291863024_2953733388_279334115" to="23303801_279334115_2953733394" />
	<connection from="291863024_2953733388_279334115" to="23303801_279334115_252271018" />
	<connection from="360476804_488598745_33041585" to="219112967_33041585_33041587" />
	<connection from="360476804_488598745_33041585" to="360476804_33041585_488598745" />
	<connection from="360476804_488598745_33041585" to="783698466_33041585_33041729" />
	<connection from="4898683_31921576_2453807144" to="4898683_2453807144_31921576" />
	<connection from="4898683_31921576_2453807144" to="237487692_2453807144_3323258414" />
	<connection from="4898683_31921576_2453807144" to="4898683_2453807144_620823555" />
	<connection from="29733628_327579072_327572504" to="29733628_327572504_327579072" />
	<connection from="29733628_327579072_327572504" to="1183433943_327572504_327572511" />
	<connection from="29733628_327579072_327572504" to="29733445_327572504_327572547" />
	<connection from="29733628_327579072_327572504" to="29733627_327572504_327579096" />
	<connection from="27492581_31921390_390528189" to="27492581_390528189_31921040" />
	<connection from="27492581_31921390_390528189" to="636481010_390528189_2453807115" />
	<connection from="27492581_31921390_390528189" to="27492581_390528189_31921390" />
	<connection from="1183433941_327579072_327579087" to="23563281_327579087_255154989" />
	<connection from="1183433941_327579072_327579087" to="23563281_327579087_286689834" />
	<connection from="1183433941_327579072_327579087" to="1183433941_327579087_327579072" />
	<connection from="23303799_10219699274_2766536022" to="23303799_2766536022_10219699274" />
	<connection from="293933444_3927518269_301819552" to="665045753_301819552_2453807158" />
	<connection from="293933444_3927518269_301819552" to="293933444_301819552_3927518269" />
	<connection from="293933444_3927518269_301819552" to="510462031_301819552_4994644960" />
	<connection from="293933444_3927518269_301819552" to="384994898_301819552_928501933" />
	<connection from="679256468_1783874206_1783874207" to="679256468_1783874207_1783874206" />
	<connection from="679256468_1783874206_1783874207" to="679256467_1783874207_254985137" />
	<connection from="4898703_620823593_31921551" to="23133776_31921551_2471371515" />
	<connection from="4898703_620823593_31921551" to="679248750_31921551_27324982" />
	<connection from="225935757_2894959922_2894959920" to="225935757_2894959920_2894959922" />
	<connection from="225935757_2894959922_2894959920" to="79650838_2894959920_2953733190" />
	<connection from="225935757_2894959922_2894959920" to="225935757_2894959920_2894959914" />
	<connection from="1181203256_1461097374_27244905" to="223015648_27244905_282668829" />
	<connection from="1181203256_1461097374_27244905" to="28484735_27244905_3364664649" />
	<connection from="1181203256_1461097374_27244905" to="166993922_27244905_33041285" />
	<connection from="1181203256_1461097374_27244905" to="1181203256_27244905_1461097374" />
	<connection from="126600481_1403081922_2252551523" to="126600481_2252551523_1403081922" />
	<connection from="126600481_1403081922_2252551523" to="215819833_2252551523_2252551409" />
	<connection from="126600481_1403081922_2252551523" to="126600481_2252551523_2245582939" />
	<connection from="126600481_1403081922_2252551523" to="215819833_2252551523_2252551532" />
	<connection from="28484735_3364664649_27244905" to="223015648_27244905_282668829" />
	<connection from="28484735_3364664649_27244905" to="28484735_27244905_3364664649" />
	<connection from="28484735_3364664649_27244905" to="166993922_27244905_33041285" />
	<connection from="28484735_3364664649_27244905" to="1181203256_27244905_1461097374" />
	<connection from="4906385_264497341_3048303562" to="27492004_3048303562_301815232" />
	<connection from="4906385_264497341_3048303562" to="4906385_3048303562_32033116" />
	<connection from="4906385_264497341_3048303562" to="4906385_3048303562_264497341" />
	<connection from="4898647_31921537_31920817" to="4898647_31920817_31921437" />
	<connection from="4898647_31921537_31920817" to="994046349_31920817_31921078" />
	<connection from="4898647_31921537_31920817" to="994046351_31920817_1038557942" />
	<connection from="4898647_31921537_31920817" to="4898647_31920817_31921537" />
	<connection from="1267758441_33041284_8955938501" to="79650837_8955938501_253830918" />
	<connection from="1267758441_33041284_8955938501" to="1267758441_8955938501_33041284" />
	<connection from="301172578_27245021_388387675" to="301172576_388387675_388387025" />
	<connection from="301172578_27245021_388387675" to="301172578_388387675_27245021" />
	<connection from="1150153383_2079641412_10699427230" to="88221130_10699427230_31921169" />
	<connection from="1150153383_2079641412_10699427230" to="1150153383_10699427230_2079641412" />
	<connection from="4898675_31921403_31921014" to="4898675_31921014_31921403" />
	<connection from="4898675_31921403_31921014" to="37528407_31921014_31921233" />
	<connection from="132456194_31921141_31921462" to="132456194_31921462_31921141" />
	<connection from="132456194_31921141_31921462" to="132456194_31921462_282664080" />
	<connection from="263828071_268130802_620823558" to="24669261_620823558_268132141" />
	<connection from="263828071_268130802_620823558" to="263828071_620823558_31944041" />
	<connection from="34068538_32033164_301819379" to="34068538_301819379_32033164" />
	<connection from="34068538_32033164_301819379" to="699976694_301819379_32033154" />
	<connection from="994046349_1576580813_382701226" to="33538234_382701226_382701236" />
	<connection from="994046349_1576580813_382701226" to="994046349_382701226_390526837" />
	<connection from="994046349_1576580813_382701226" to="994046349_382701226_1576580813" />
	<connection from="79650837_33041285_253830918" to="79650837_253830918_33041285" />
	<connection from="79650837_33041285_253830918" to="23438341_253830918_253830930" />
	<connection from="79650837_33041285_253830918" to="79650837_253830918_8955938501" />
	<connection from="27492581_390528189_31921390" to="27492581_31921390_390528189" />
	<connection from="27492581_390528189_31921390" to="4898647_31921390_31921169" />
	<connection from="27492581_390528189_31921390" to="4898647_31921390_31921537" />
	<connection from="28484736_3650189778_3650189776" to="929163021_3650189776_3650189774" />
	<connection from="28484736_3650189778_3650189776" to="28484736_3650189776_3650189778" />
	<connection from="27493075_301825449_620823593" to="27493075_620823593_301825449" />
	<connection from="27493075_301825449_620823593" to="294339097_620823593_27324982" />
	<connection from="27493075_301825449_620823593" to="4898703_620823593_31921551" />
	<connection from="27493075_301825449_620823593" to="679248751_620823593_27245106" />
	<connection from="38553234_249784279_388371039" to="223013770_388371039_32033116" />
	<connection from="38553234_249784279_388371039" to="38553234_388371039_249784279" />
	<connection from="38198450_2429051378_390036585" to="38198450_390036585_2429051378" />
	<connection from="38198450_2429051378_390036585" to="98641842_390036585_1141189557" />
	<connection from="38198450_2429051378_390036585" to="1267758439_390036585_33041284" />
	<connection from="33899634_9261765766_9261737967" to="33899634_9261737967_9261765766" />
	<connection from="33899634_9261765766_9261737967" to="33899634_9261737967_3917537562" />
	<connection from="33899634_9261765766_9261737967" to="388566686_9261737967_3917537559" />
	<connection from="1157783481_10767211640_252271040" to="1157783481_252271040_10767211640" />
	<connection from="79650837_253830918_33041285" to="79650837_33041285_253830918" />
	<connection from="79650837_253830918_33041285" to="166993923_33041285_27244905" />
	<connection from="350169724_3559230499_3559230500" to="350169724_3559230500_3559230499" />
	<connection from="350169724_3559230499_3559230500" to="350169727_3559230500_388390785" />
	<connection from="34080346_31921384_31920783" to="34080346_31920783_31921384" />
	<connection from="34080346_31921384_31920783" to="994046350_31920783_1057025008" />
	<connection from="34080346_31921384_31920783" to="34067676_31920783_1038557942" />
	<connection from="34080346_31921384_31920783" to="37528407_31920783_31921014" />
	<connection from="1183433939_327587580_327587590" to="1183433939_327587590_327587580" />
	<connection from="484551588_2320906139_2347820273" to="223161841_2347820273_2320906114" />
	<connection from="484551588_2320906139_2347820273" to="484551588_2347820273_2320906139" />
	<connection from="29734036_327572599_327587580" to="29734037_327587580_327572595" />
	<connection from="29734036_327572599_327587580" to="1183433939_327587580_327587590" />
	<connection from="29734036_327572599_327587580" to="29734036_327587580_327572599" />
	<connection from="223013770_388371039_32033116" to="223013770_32033116_388371039" />
	<connection from="223013770_388371039_32033116" to="4906385_32033116_3048303562" />
	<connection from="223013770_388371039_32033116" to="4906390_32033116_377195468" />
	<connection from="388566687_3917537558_3917537559" to="388566687_3917537559_3917537562" />
	<connection from="388566687_3917537558_3917537559" to="388566686_3917537559_9261737967" />
	<connection from="388566687_3917537558_3917537559" to="388566687_3917537559_3917537558" />
	<connection from="377650033_1986836620_252271003" to="377650033_252271003_1986836620" />
	<connection from="377650033_1986836620_252271003" to="225935758_252271003_252271072" />
	<connection from="377650033_1986836620_252271003" to="329578499_252271003_27244886" />
	<connection from="365506612_3695097282_929466848" to="365506612_929466848_3695097282" />
	<connection from="365506612_3695097282_929466848" to="79650835_929466848_2573736146" />
	<connection from="1313982061_450112961_1403081956" to="1313982061_1403081956_450112961" />
	<connection from="570488833_5484775231_2953733190" to="79650838_2953733190_10973919932" />
	<connection from="570488833_5484775231_2953733190" to="570488833_2953733190_5484775231" />
	<connection from="570488833_5484775231_2953733190" to="79650838_2953733190_2894959920" />
	<connection from="451948347_4487526497_3364664649" to="28484735_3364664649_27244905" />
	<connection from="451948347_4487526497_3364664649" to="451948347_3364664649_4487526497" />
	<connection from="225935758_252271003_252271072" to="225935757_252271072_2894959922" />
	<connection from="225935758_252271003_252271072" to="225935758_252271072_252271003" />
	<connection from="1122584625_9417910001_282664080" to="1122584625_282664080_9417910001" />
	<connection from="1122584625_9417910001_282664080" to="132456194_282664080_31921462" />
	<connection from="38041501_31921484_31921183" to="34078032_31921183_32033063" />
	<connection from="38041501_31921484_31921183" to="38041501_31921183_31920956" />
	<connection from="38041501_31921484_31921183" to="38041501_31921183_31921484" />
	<connection from="38041501_31921484_31921183" to="4898675_31921183_31921403" />
	<connection from="171669819_142405168_58485622" to="169726305_58485622_142404975" />
	<connection from="171669819_142405168_58485622" to="14491518_58485622_142408448" />
	<connection from="171669819_142405168_58485622" to="171669819_58485622_142405168" />
	<connection from="215139316_2245582979_1403081922" to="126600481_1403081922_1403081992" />
	<connection from="215139316_2245582979_1403081922" to="215139316_1403081922_2245582979" />
	<connection from="215139316_2245582979_1403081922" to="126600481_1403081922_2252551523" />
	<connection from="4906380_32033158_32033157" to="4906380_32033157_32033156" />