<edges>
	<edge id="350169727_388390785_27245016" from="388390785" to="27245016" numLanes="1" shape="369344.37,5814186.50,0.00 369444.38,5814236.51,0.00" speed="22.22" />
	<edge id="665045753_301819552_2453807158" from="301819552" to="2453807158" numLanes="2" shape="371270.84,5815113.70,0.00 371272.73,5815102.35,0.00" speed="8.33" />
	<edge id="1184003930_7462673855_10995232766" from="7462673855" to="10995232766" numLanes="1" shape="366187.90,5811889.24,0.00 366177.00,5811943.98,0.00" speed="8.33" />
	<edge id="13864428_58485614_58485604" from="58485614" to="58485604" numLanes="1" shape="365917.86,5811614.94,0.00 365893.93,5811616.68,0.00 365871.59,5811616.09,0.00 365863.54,5811615.80,0.00 365837.18,5811608.36,0.00 365799.64,5811589.64,0.00 365787.04,5811583.40,0.00 365780.94,5811580.38,0.00 365754.51,5811567.29,0.00 365681.74,5811530.67,0.00 365475.72,5811427.00,0.00 365415.14,5811396.52,0.00 365316.07,5811346.68,0.00 365305.05,5811341.14,0.00 365293.16,5811335.16,0.00 365268.31,5811322.66,0.00 365256.85,5811316.76,0.00 365136.94,5811256.77,0.00 364671.72,5811022.55,0.00 364638.38,5811005.78,0.00 364620.49,5810998.89,0.00" speed="13.89" />
	<edge id="929163021_3650189774_3650189776" from="3650189774" to="3650189776" numLanes="1" shape="367268.53,5812116.57,0.00 367263.76,5812128.27,0.00" speed="13.89" />
	<edge id="104803383_1783874206_3650189778" from="1783874206" to="3650189778" numLanes="1" shape="367254.28,5812150.28,0.00 367258.75,5812140.04,0.00" speed="13.89" />
	<edge id="98641842_1141189557_390036585" from="1141189557" to="390036585" numLanes="1" shape="365726.42,5814623.52,0.00 365885.24,5814528.04,0.00 365909.34,5814513.68,0.00 365933.27,5814496.65,0.00 365946.62,5814484.88,0.00 365974.95,5814452.08,0.00 366004.39,5814421.42,0.00 366016.67,5814411.52,0.00 366053.96,5814381.31,0.00 366104.27,5814339.39,0.00 366138.59,5814310.29,0.00 366171.98,5814280.76,0.00 366222.07,5814239.51,0.00 366259.72,5814215.55,0.00 366303.40,5814185.33,0.00 366316.29,5814175.93,0.00 366332.66,5814163.56,0.00 366506.12,5814023.35,0.00 366525.55,5814005.33,0.00 366555.24,5813973.08,0.00 366614.42,5813907.30,0.00 366639.60,5813880.05,0.00 366653.29,5813862.89,0.00" speed="16.67" />
	<edge id="79564303_928501942_928501965" from="928501942" to="928501965" numLanes="1" shape="371143.77,5815335.64,0.00 371150.28,5815334.18,0.00 371166.34,5815331.52,0.00" speed="8.33" />
	<edge id="29734037_327587580_327572595" from="327587580" to="327572595" numLanes="1" shape="367412.41,5812936.21,0.00 367464.52,5812888.90,0.00 367401.51,5812830.63,0.00" speed="8.33" />
	<edge id="377522908_3808993303_27244837" from="3808993303" to="27244837" numLanes="1" shape="367522.14,5811406.33,0.00 367496.78,5811488.20,0.00" speed="13.89" />
	<edge id="23563281_286689834_327579087" from="286689834" to="327579087" numLanes="1" shape="367260.45,5812632.98,0.00 367300.91,5812611.11,0.00 367317.79,5812602.88,0.00 367365.53,5812577.87,0.00" speed="8.33" />
	<edge id="1043698011_9605298581_32033063" from="9605298581" to="32033063" numLanes="1" shape="371012.31,5813703.22,0.00 371094.86,5813709.48,0.00" speed="8.33" />
	<edge id="38199927_2245582979_450112961" from="2245582979" to="450112961" numLanes="1" shape="367568.04,5814119.71,0.00 367602.35,5814212.29,0.00" speed="8.33" />
	<edge id="396693237_2290417202_2294548207" from="2290417202" to="2294548207" numLanes="1" shape="367715.60,5811423.28,0.00 367711.61,5811416.22,0.00 367703.73,5811413.90,0.00 367699.34,5811420.60,0.00 367697.06,5811428.18,0.00" speed="8.33" />
	<edge id="38041501_31921183_31920956" from="31921183" to="31920956" numLanes="1" shape="371118.66,5814030.78,0.00 371026.55,5814032.14,0.00" speed="8.33" />
	<edge id="427702902_1057024981_31920956" from="1057024981" to="31920956" numLanes="1" shape="371029.75,5814229.90,0.00 371027.75,5814106.21,0.00 371027.31,5814078.67,0.00 371027.09,5814065.62,0.00 371026.55,5814032.14,0.00" speed="13.89" />
	<edge id="27492581_31921040_390528189" from="31921040" to="390528189" numLanes="1" shape="371421.39,5815000.40,0.00 371407.76,5814954.69,0.00 371402.43,5814933.64,0.00 371389.27,5814881.72,0.00" speed="8.33" />
	<edge id="79564290_928501940_928501898" from="928501940" to="928501898" numLanes="1" shape="370972.61,5814706.49,0.00 370932.40,5814710.49,0.00 370840.89,5814710.81,0.00" speed="8.33" />
	<edge id="223161840_2320906136_2071884626" from="2320906136" to="2071884626" numLanes="1" shape="367662.87,5810954.64,0.00 367653.97,5810952.53,0.00" speed="13.89" />
	<edge id="1043698011_32033063_32033103" from="32033063" to="32033103" numLanes="1" shape="371094.86,5813709.48,0.00 371183.53,5813720.64,0.00" speed="8.33" />
	<edge id="699977836_31921532_32033127" from="31921532" to="32033127" numLanes="1" shape="370922.99,5814035.42,0.00 370878.12,5814036.37,0.00" speed="8.33" />
	<edge id="699976694_32033046_32033048" from="32033046" to="32033048" numLanes="1" shape="370888.66,5813696.03,0.00 370878.36,5813644.38,0.00 370869.05,5813597.70,0.00" speed="8.33" />
	<edge id="4441604_146447763_27244866" from="146447763" to="27244866" numLanes="1" shape="367281.74,5812085.34,0.00 367332.89,5811960.22,0.00" speed="13.89" />
	<edge id="37528407_31920783_31921014" from="31920783" to="31921014" numLanes="2" shape="371034.18,5814532.55,0.00 371126.85,5814532.77,0.00" speed="8.33" />
	<edge id="379156870_27245016_388390387" from="27245016" to="388390387" numLanes="1" shape="369444.38,5814236.51,0.00 369455.85,5814242.27,0.00 369528.72,5814278.84,0.00" speed="22.22" />
	<edge id="384994898_301819552_928501933" from="301819552" to="928501933" numLanes="1" shape="371270.84,5815113.70,0.00 371255.53,5815159.35,0.00 371239.20,5815208.59,0.00 371231.67,5815212.81,0.00 371189.94,5815216.14,0.00 371149.81,5815219.33,0.00 371140.15,5815224.61,0.00 371138.15,5815225.69,0.00 371134.44,5815238.58,0.00 371137.07,5815245.35,0.00 371140.55,5815254.33,0.00" speed="8.33" />
	<edge id="301172581_2374861494_928501942" from="2374861494" to="928501942" numLanes="1" shape="371195.62,5815627.50,0.00 371186.98,5815590.38,0.00 371176.00,5815523.00,0.00 371173.95,5815509.40,0.00 371163.17,5815438.13,0.00 371162.56,5815434.80,0.00 371153.92,5815384.23,0.00 371143.77,5815335.64,0.00" speed="19.44" />
	<edge id="4898710_27245021_420519037" from="27245021" to="420519037" numLanes="1" shape="370609.92,5814828.51,0.00 370614.27,5814822.22,0.00" speed="8.33" />
	<edge id="1183433940_327572511_327572518" from="327572511" to="327572518" numLanes="1" shape="367496.39,5812757.73,0.00 367537.94,5812732.77,0.00" speed="8.33" />
	<edge id="699977389_301819419_388383905" from="301819419" to="388383905" numLanes="1" shape="370735.34,5813887.63,0.00 370745.46,5813917.63,0.00 370762.92,5813960.24,0.00 370793.10,5813998.44,0.00 370826.53,5814027.24,0.00 370839.21,5814036.71,0.00" speed="8.33" />
	<edge id="1183433944_327572618_8548753601" from="327572618" to="8548753601" numLanes="1" shape="367253.03,5812861.17,0.00 367260.09,5812856.25,0.00 367265.64,5812853.90,0.00 367271.39,5812851.87,0.00 367277.69,5812850.10,0.00 367284.07,5812848.75,0.00 367290.65,5812847.81,0.00 367297.43,5812847.32,0.00 367306.46,5812847.36,0.00 367308.72,5812847.37,0.00" speed="8.33" />
	<edge id="379156871_278790739_3825037551" from="278790739" to="3825037551" numLanes="1" shape="367792.14,5813949.99,0.00 367746.29,5813928.53,0.00 367741.94,5813926.48,0.00 367640.87,5813878.66,0.00 367620.46,5813868.84,0.00" speed="19.44" />
	<edge id="223161840_5253863931_2320906136" from="5253863931" to="2320906136" numLanes="1" shape="367699.37,5810962.86,0.00 367662.87,5810954.64,0.00" speed="13.89" />
	<edge id="126600481_2252551523_1403081922" from="2252551523" to="1403081922" numLanes="1" shape="367520.13,5813967.44,0.00 367557.18,5813954.86,0.00 367601.48,5813938.72,0.00 367630.35,5813924.92,0.00 367651.88,5813919.74,0.00 367668.88,5813925.57,0.00 367679.08,5813945.02,0.00 367692.19,5813971.64,0.00 367705.03,5814005.21,0.00 367716.02,5814023.86,0.00 367735.27,5814060.39,0.00" speed="8.33" />
	<edge id="169726303_142405658_7462673855" from="142405658" to="7462673855" numLanes="1" shape="366506.37,5811558.73,0.00 366468.57,5811600.43,0.00 366431.95,5811634.66,0.00 366396.12,5811659.33,0.00 366378.42,5811666.35,0.00 366354.06,5811680.06,0.00 366312.09,5811702.94,0.00 366297.95,5811720.93,0.00 366286.13,5811736.28,0.00 366280.12,5811746.41,0.00 366271.25,5811761.39,0.00 366242.89,5811803.89,0.00 366237.66,5811809.99,0.00 366215.76,5811835.92,0.00 366193.45,5811856.96,0.00 366187.10,5811868.76,0.00 366185.96,5811876.70,0.00 366187.90,5811889.24,0.00" speed="8.33" />
	<edge id="783698466_33041729_33041585" from="33041729" to="33041585" numLanes="1" shape="367068.37,5810899.56,0.00 366999.41,5810950.48,0.00 366997.66,5810951.97,0.00 366994.42,5810954.83,0.00" speed="8.33" />
	<edge id="294339097_620823593_27324982" from="620823593" to="27324982" numLanes="1" shape="371499.61,5815190.07,0.00 371622.14,5815230.98,0.00 371631.04,5815234.70,0.00 371636.72,5815237.62,0.00 371645.69,5815242.30,0.00" speed="8.33" />
	<edge id="263828071_268130800_268130804" from="268130800" to="268130804" numLanes="1" shape="371061.64,5815080.68,0.00 371063.67,5815081.72,0.00 371065.54,5815083.04,0.00 371067.21,5815084.60,0.00" speed="13.89" />
	<edge id="34078032_32033063_31921183" from="32033063" to="31921183" numLanes="1" shape="371094.86,5813709.48,0.00 371102.46,5813809.83,0.00 371113.40,5813913.88,0.00 371118.66,5814030.78,0.00" speed="8.33" />
	<edge id="4449161_268130804_268130809" from="268130804" to="268130809" numLanes="1" shape="371067.21,5815084.60,0.00 371077.42,5815086.11,0.00 371100.28,5815082.11,0.00 371115.05,5815080.28,0.00" speed="18.06" />
	<edge id="23303803_252271028_252271029" from="252271028" to="252271029" numLanes="1" shape="366269.54,5812268.01,0.00 366215.72,5812280.20,0.00" speed="8.33" />
	<edge id="23303798_2894959914_2894959909" from="2894959914" to="2894959909" numLanes="1" shape="366482.40,5812493.69,0.00 366478.52,5812495.10,0.00 366378.14,5812530.18,0.00 366352.43,5812539.18,0.00" speed="8.33" />
	<edge id="246509767_253831187_11079338247" from="253831187" to="11079338247" numLanes="1" shape="367210.73,5812639.63,0.00 367211.37,5812659.75,0.00" speed="16.67" />
	<edge id="277979895_252271024_2894959914" from="252271024" to="2894959914" numLanes="1" shape="366392.94,5812168.76,0.00 366410.67,5812248.66,0.00 366429.08,5812317.57,0.00 366482.40,5812493.69,0.00" speed="8.33" />
	<edge id="1313982056_12161923828_12161923833" from="12161923828" to="12161923833" numLanes="1" shape="367393.88,5813917.67,0.00 367353.99,5813809.15,0.00 367354.58,5813806.99,0.00 367357.50,5813783.64,0.00 367377.75,5813742.57,0.00 367394.30,5813723.07,0.00 367409.28,5813705.42,0.00" speed="8.33" />
	<edge id="1181203256_27244905_1461097374" from="27244905" to="1461097374" numLanes="1" shape="367233.36,5812928.39,0.00 367231.19,5812908.77,0.00" speed="16.67" />
	<edge id="4906372_32033046_32033044" from="32033046" to="32033044" numLanes="1" shape="370888.66,5813696.03,0.00 370921.82,5813948.10,0.00" speed="8.33" />
	<edge id="126600481_11358967424_2252614598" from="11358967424" to="2252614598" numLanes="1" shape="367503.19,5813974.58,0.00 367369.88,5814023.98,0.00 367147.32,5814106.46,0.00 366790.24,5814244.85,0.00" speed="8.33" />
	<edge id="380314289_929466855_450100590" from="929466855" to="450100590" numLanes="1" shape="367199.08,5813411.89,0.00 367208.92,5813454.49,0.00 367216.68,5813488.05,0.00 367220.50,5813503.63,0.00" speed="8.33" />
	<edge id="38199927_450112965_450111837" from="450112965" to="450111837" numLanes="1" shape="367470.59,5813860.62,0.00 367478.89,5813885.86,0.00" speed="8.33" />
	<edge id="27493075_620823593_301825449" from="620823593" to="301825449" numLanes="1" shape="371499.61,5815190.07,0.00 371413.81,5815300.45,0.00" speed="8.33" />
	<edge id="1157783193_10767211639_10767186258" from="10767211639" to="10767186258" numLanes="1" shape="366620.49,5812162.73,0.00 366628.80,5812193.75,0.00 366629.58,5812196.66,0.00" speed="8.33" />
	<edge id="1084215666_9935408171_9935408170" from="9935408171" to="9935408170" numLanes="1" shape="367466.56,5811608.10,0.00 367461.03,5811621.66,0.00 367459.35,5811625.74,0.00 367456.73,5811632.15,0.00" speed="13.89" />
	<edge id="699977836_32033127_388383905" from="32033127" to="388383905" numLanes="1" shape="370878.12,5814036.37,0.00 370839.21,5814036.71,0.00" speed="8.33" />
	<edge id="29733630_327579096_327579119" from="327579096" to="327579119" numLanes="1" shape="367364.88,5812769.99,0.00 367331.17,5812714.99,0.00" speed="8.33" />
	<edge id="379156867_4487526497_2573736145" from="4487526497" to="2573736145" numLanes="1" shape="367296.01,5813371.07,0.00 367309.94,5813433.51,0.00 367318.71,5813474.65,0.00" speed="19.44" />
	<edge id="35590348_268132144_268130802" from="268132144" to="268130802" numLanes="1" shape="371075.94,5815163.20,0.00 371066.99,5815147.27,0.00 371059.69,5815125.93,0.00 371056.03,5815116.37,0.00 371050.97,5815112.50,0.00" speed="16.67" />
	<edge id="43394022_1762038627_142399000" from="1762038627" to="142399000" numLanes="1" shape="366655.65,5811464.77,0.00 366607.25,5811484.29,0.00 366583.54,5811493.86,0.00 366578.53,5811495.88,0.00 366570.58,5811499.08,0.00" speed="8.33" />
	<edge id="1183433944_8548753601_327572618" from="8548753601" to="327572618" numLanes="1" shape="367308.72,5812847.37,0.00 367306.46,5812847.36,0.00 367297.43,5812847.32,0.00 367290.65,5812847.81,0.00 367284.07,5812848.75,0.00 367277.69,5812850.10,0.00 367271.39,5812851.87,0.00 367265.64,5812853.90,0.00 367260.09,5812856.25,0.00 367253.03,5812861.17,0.00" speed="8.33" />
	<edge id="23133776_31921551_2471371515" from="31921551" to="2471371515" numLanes="1" shape="371567.03,5815091.31,0.00 371564.42,5815077.66,0.00 371558.83,5815048.40,0.00 371555.66,5815033.42,0.00 371548.85,5814996.14,0.00 371543.69,5814973.39,0.00 371537.98,5814950.51,0.00 371529.57,5814921.92,0.00 371523.05,5814897.99,0.00" speed="13.89" />
	<edge id="679248749_6364767125_1576580813" from="6364767125" to="1576580813" numLanes="1" shape="371058.72,5814975.63,0.00 371058.65,5814973.81,0.00 371058.26,5814964.09,0.00 371057.75,5814951.37,0.00" speed="13.89" />
	<edge id="350169722_3559230501_388387025" from="3559230501" to="388387025" numLanes="1" shape="369581.47,5814305.14,0.00 369671.38,5814350.56,0.00" speed="22.22" />
	<edge id="350169728_3559230494_27244982" from="3559230494" to="27244982" numLanes="1" shape="368296.84,5813909.36,0.00 368402.40,5813910.23,0.00 368506.85,5813913.81,0.00 368595.18,5813921.52,0.00 368754.33,5813942.84,0.00 368766.83,5813944.35,0.00 368819.88,5813951.07,0.00 368874.39,5813960.86,0.00 368921.95,5813975.83,0.00" speed="27.78" />
	<edge id="98641842_390036585_1141189557" from="390036585" to="1141189557" numLanes="1" shape="366653.29,5813862.89,0.00 366639.60,5813880.05,0.00 366614.42,5813907.30,0.00 366555.24,5813973.08,0.00 366525.55,5814005.33,0.00 366506.12,5814023.35,0.00 366332.66,5814163.56,0.00 366316.29,5814175.93,0.00 366303.40,5814185.33,0.00 366259.72,5814215.55,0.00 366222.07,5814239.51,0.00 366171.98,5814280.76,0.00 366138.59,5814310.29,0.00 366104.27,5814339.39,0.00 366053.96,5814381.31,0.00 366016.67,5814411.52,0.00 366004.39,5814421.42,0.00 365974.95,5814452.08,0.00 365946.62,5814484.88,0.00 365933.27,5814496.65,0.00 365909.34,5814513.68,0.00 365885.24,5814528.04,0.00 365726.42,5814623.52,0.00" speed="16.67" />
	<edge id="4906363_9605301626_32033046" from="9605301626" to="32033046" numLanes="1" shape="370977.98,5813701.02,0.00 370888.66,5813696.03,0.00" speed="8.33" />
	<edge id="34078032_32033063_32033157" from="32033063" to="32033157" numLanes="1" shape="371094.86,5813709.48,0.00 371106.16,5813638.20,0.00 371124.45,5813561.34,0.00 371164.07,5813457.76,0.00" speed="8.33" />
	<edge id="34068269_377195453_377195468" from="377195453" to="377195468" numLanes="1" shape="371477.92,5813330.33,0.00 371457.13,5813343.32,0.00 371424.68,5813351.56,0.00" speed="8.33" />
	<edge id="104803383_3650189778_1783874206" from="3650189778" to="1783874206" numLanes="1" shape="367258.75,5812140.04,0.00 367254.28,5812150.28,0.00" speed="13.89" />
	<edge id="23133776_2471371515_31921551" from="2471371515" to="31921551" numLanes="1" shape="371523.05,5814897.99,0.00 371529.57,5814921.92,0.00 371537.98,5814950.51,0.00 371543.69,5814973.39,0.00 371548.85,5814996.14,0.00 371555.66,5815033.42,0.00 371558.83,5815048.40,0.00 371564.42,5815077.66,0.00 371567.03,5815091.31,0.00" speed="13.89" />
	<edge id="427702903_1057024972_1057025008" from="1057024972" to="1057025008" numLanes="1" shape="371028.46,5814260.16,0.00 371028.45,5814265.85,0.00 371030.04,5814287.30,0.00" speed="13.89" />
	<edge id="79650838_2894959920_2953733190" from="2894959920" to="2953733190" numLanes="1" shape="366616.45,5812453.61,0.00 366530.59,5812151.02,0.00" speed="8.33" />
	<edge id="24669262_928501942_268132144" from="928501942" to="268132144" numLanes="1" shape="371143.77,5815335.64,0.00 371136.11,5815305.26,0.00 371126.43,5815273.46,0.00 371111.03,5815234.58,0.00 371075.94,5815163.20,0.00" speed="16.67" />
	<edge id="4906385_32033116_3048303562" from="32033116" to="3048303562" numLanes="1" shape="371382.12,5813590.30,0.00 371399.14,5813586.91,0.00" speed="8.33" />
	<edge id="26180063_327572618_327587554" from="327572618" to="327587554" numLanes="1" shape="367253.03,5812861.17,0.00 367252.53,5812848.80,0.00 367253.81,5812832.53,0.00 367256.42,5812806.96,0.00 367258.57,5812775.48,0.00 367260.88,5812748.15,0.00" speed="8.33" />
	<edge id="4898657_31921384_31921246" from="31921384" to="31921246" numLanes="1" shape="370930.19,5814528.20,0.00 370853.23,5814528.91,0.00" speed="8.33" />
	<edge id="396693238_2290417223_2027853945" from="2290417223" to="2027853945" numLanes="1" shape="367526.21,5811484.76,0.00 367536.98,5811488.57,0.00" speed="8.33" />
	<edge id="653799075_31921532_31920956" from="31921532" to="31920956" numLanes="1" shape="370922.99,5814035.42,0.00 371026.55,5814032.14,0.00" speed="8.33" />
	<edge id="4441604_27244866_146447763" from="27244866" to="146447763" numLanes="1" shape="367332.89,5811960.22,0.00 367281.74,5812085.34,0.00" speed="13.89" />
	<edge id="1313982056_12161923833_12161923828" from="12161923833" to="12161923828" numLanes="1" shape="367409.28,5813705.42,0.00 367394.30,5813723.07,0.00 367377.75,5813742.57,0.00 367357.50,5813783.64,0.00 367354.58,5813806.99,0.00 367353.99,5813809.15,0.00 367393.88,5813917.67,0.00" speed="8.33" />
	<edge id="427702903_1057024981_1057024972" from="1057024981" to="1057024972" numLanes="1" shape="371029.75,5814229.90,0.00 371029.39,5814233.72,0.00 371028.28,5814245.48,0.00 371028.39,5814254.28,0.00 371028.46,5814260.16,0.00" speed="13.89" />
	<edge id="389583434_2453815469_5169470122" from="2453815469" to="5169470122" numLanes="1" shape="371421.32,5815163.93,0.00 371405.81,5815158.68,0.00" speed="18.06" />
	<edge id="291863024_2953733388_279334115" from="2953733388" to="279334115" numLanes="1" shape="366198.43,5812132.16,0.00 366211.07,5812177.73,0.00" speed="8.33" />
	<edge id="360476804_488598745_33041585" from="488598745" to="33041585" numLanes="1" shape="367470.37,5811281.71,0.00 367333.83,5811189.05,0.00 367192.28,5811092.57,0.00 367030.40,5810980.35,0.00 366994.42,5810954.83,0.00" speed="13.89" />
	<edge id="4898683_31921576_2453807144" from="31921576" to="2453807144" numLanes="1" shape="371279.45,5815013.20,0.00 371235.58,5815017.17,0.00 371191.42,5815021.15,0.00 371149.42,5815024.94,0.00 371116.58,5815028.01,0.00" speed="8.33" />
	<edge id="29733628_327579072_327572504" from="327579072" to="327572504" numLanes="1" shape="367428.94,5812651.99,0.00 367446.64,5812676.90,0.00 367467.67,5812708.46,0.00" speed="8.33" />
	<edge id="27492581_31921390_390528189" from="31921390" to="390528189" numLanes="1" shape="371376.24,5814774.15,0.00 371379.74,5814808.88,0.00 371379.89,5814812.86,0.00 371383.81,5814851.34,0.00 371384.95,5814861.08,0.00 371389.27,5814881.72,0.00" speed="8.33" />
	<edge id="1183433941_327579072_327579087" from="327579072" to="327579087" numLanes="1" shape="367428.94,5812651.99,0.00 367427.52,5812650.35,0.00 367407.25,5812626.91,0.00 367389.70,5812606.61,0.00 367365.53,5812577.87,0.00" speed="8.33" />
	<edge id="23303799_10219699274_2766536022" from="10219699274" to="2766536022" numLanes="1" shape="366215.01,5812598.56,0.00 366215.76,5812617.51,0.00" speed="8.33" />
	<edge id="293933444_3927518269_301819552" from="3927518269" to="301819552" numLanes="1" shape="371376.80,5815149.07,0.00 371270.84,5815113.70,0.00" speed="13.89" />
	<edge id="679256468_1783874206_1783874207" from="1783874206" to="1783874207" numLanes="1" shape="367254.28,5812150.28,0.00 367245.28,5812171.73,0.00" speed="13.89" />
	<edge id="4898703_620823593_31921551" from="620823593" to="31921551" numLanes="2" shape="371499.61,5815190.07,0.00 371518.67,5815189.28,0.00 371533.76,5815187.18,0.00 371546.99,5815180.72,0.00 371556.18,5815171.72,0.00 371563.80,5815161.60,0.00 371565.20,5815157.20,0.00 371567.03,5815091.31,0.00" speed="13.89" />
	<edge id="225935757_2894959922_2894959920" from="2894959922" to="2894959920" numLanes="1" shape="366692.74,5812431.55,0.00 366616.45,5812453.61,0.00" speed="8.33" />
	<edge id="1181203256_1461097374_27244905" from="1461097374" to="27244905" numLanes="1" shape="367231.19,5812908.77,0.00 367233.36,5812928.39,0.00" speed="16.67" />
	<edge id="126600481_1403081922_2252551523" from="1403081922" to="2252551523" numLanes="1" shape="367735.27,5814060.39,0.00 367716.02,5814023.86,0.00 367705.03,5814005.21,0.00 367692.19,5813971.64,0.00 367679.08,5813945.02,0.00 367668.88,5813925.57,0.00 367651.88,5813919.74,0.00 367630.35,5813924.92,0.00 367601.48,5813938.72,0.00 367557.18,5813954.86,0.00 367520.13,5813967.44,0.00" speed="8.33" />
	<edge id="28484735_3364664649_27244905" from="3364664649" to="27244905" numLanes="2" shape="367241.42,5812988.59,0.00 367233.36,5812928.39,0.00" speed="19.44" />
	<edge id="4906385_264497341_3048303562" from="264497341" to="3048303562" numLanes="1" shape="371630.65,5813527.69,0.00 371619.47,5813531.79,0.00 371586.98,5813541.03,0.00 371556.88,5813549.95,0.00 371515.74,5813561.21,0.00 371477.70,5813571.15,0.00 371454.68,5813575.63,0.00 371429.31,5813579.26,0.00 371399.14,5813586.91,0.00" speed="8.33" />
	<edge id="4898647_31921537_31920817" from="31921537" to="31920817" numLanes="1" shape="371256.74,5814780.46,0.00 371169.05,5814789.92,0.00 371049.72,5814800.17,0.00" speed="8.33" />
	<edge id="1267758441_33041284_8955938501" from="33041284" to="8955938501" numLanes="1" shape="366660.65,5813849.92,0.00 366680.04,5813811.95,0.00 366692.68,5813787.21,0.00 366699.52,5813773.81,0.00 366716.38,5813740.81,0.00 366731.38,5813711.43,0.00 366737.86,5813698.76,0.00 366759.50,5813656.16,0.00 366773.06,5813630.35,0.00" speed="16.67" />
	<edge id="301172578_27245021_388387675" from="27245021" to="388387675" numLanes="1" shape="370609.92,5814828.51,0.00 370552.80,5814797.43,0.00 370533.64,5814787.11,0.00 370527.43,5814783.98,0.00 370442.45,5814740.95,0.00" speed="22.22" />
	<edge id="1150153383_2079641412_10699427230" from="2079641412" to="10699427230" numLanes="1" shape="371410.10,5814578.73,0.00 371418.01,5814604.83,0.00" speed="8.33" />
	<edge id="4898675_31921403_31921014" from="31921403" to="31921014" numLanes="1" shape="371120.87,5814260.17,0.00 371126.85,5814532.77,0.00" speed="8.33" />
	<edge id="132456194_31921141_31921462" from="31921141" to="31921462" numLanes="1" shape="371350.54,5814257.46,0.00 371349.10,5814325.38,0.00 371362.92,5814410.90,0.00 371366.09,5814429.07,0.00 371385.11,5814493.24,0.00" speed="13.89" />
	<edge id="263828071_268130802_620823558" from="268130802" to="620823558" numLanes="1" shape="371050.97,5815112.50,0.00 371046.91,5815110.97,0.00 371043.38,5815108.44,0.00 371040.60,5815105.11,0.00 371038.77,5815101.18,0.00" speed="13.89" />
	<edge id="34068538_32033164_301819379" from="32033164" to="301819379" numLanes="1" shape="370803.85,5813342.75,0.00 370917.99,5813306.75,0.00 370953.29,5813306.75,0.00" speed="8.33" />
	<edge id="994046349_1576580813_382701226" from="1576580813" to="382701226" numLanes="1" shape="371057.75,5814951.37,0.00 371057.58,5814947.13,0.00" speed="13.89" />
	<edge id="79650837_33041285_253830918" from="33041285" to="253830918" numLanes="1" shape="367205.70,5812948.92,0.00 367190.80,5812975.13,0.00 367032.45,5813229.56,0.00 367019.44,5813250.47,0.00" speed="16.67" />
	<edge id="27492581_390528189_31921390" from="390528189" to="31921390" numLanes="1" shape="371389.27,5814881.72,0.00 371384.95,5814861.08,0.00 371383.81,5814851.34,0.00 371379.89,5814812.86,0.00 371379.74,5814808.88,0.00 371376.24,5814774.15,0.00" speed="8.33" />
	<edge id="28484736_3650189778_3650189776" from="3650189778" to="3650189776" numLanes="1" shape="367258.75,5812140.04,0.00 367263.76,5812128.27,0.00" speed="13.89" />
	<edge id="27493075_301825449_620823593" from="301825449" to="620823593" numLanes="1" shape="371413.81,5815300.45,0.00 371499.61,5815190.07,0.00" speed="8.33" />
	<edge id="38553234_249784279_388371039" from="249784279" to="388371039" numLanes="1" shape="371289.24,5813783.35,0.00 371274.13,5813725.46,0.00 371271.82,5813714.93,0.00" speed="8.33" />
	<edge id="38198450_2429051378_390036585" from="2429051378" to="390036585" numLanes="1" shape="366760.85,5813858.69,0.00 366727.31,5813861.26,0.00 366700.59,5813865.63,0.00 366680.87,5813869.37,0.00 366673.54,5813869.70,0.00 366665.51,5813869.77,0.00 366660.05,5813869.33,0.00 366653.29,5813862.89,0.00" speed="8.33" />
	<edge id="33899634_9261765766_9261737967" from="9261765766" to="9261737967" numLanes="1" shape="369500.51,5814027.57,0.00 369380.38,5814075.31,0.00 369347.61,5814088.34,0.00 369343.66,5814091.48,0.00" speed="8.33" />
	<edge id="1157783481_10767211640_252271040" from="10767211640" to="252271040" numLanes="1" shape="366617.35,5812151.00,0.00 366603.78,5812100.38,0.00" speed="8.33" />
	<edge id="79650837_253830918_33041285" from="253830918" to="33041285" numLanes="1" shape="367019.44,5813250.47,0.00 367032.45,5813229.56,0.00 367190.80,5812975.13,0.00 367205.70,5812948.92,0.00" speed="16.67" />
	<edge id="350169724_3559230499_3559230500" from="3559230499" to="3559230500" numLanes="1" shape="369065.52,5814045.15,0.00 369105.71,5814066.13,0.00" speed="22.22" />
	<edge id="34080346_31921384_31920783" from="31921384" to="31920783" numLanes="1" shape="370930.19,5814528.20,0.00 371019.23,5814532.10,0.00 371020.38,5814532.18,0.00 371034.18,5814532.55,0.00" speed="8.33" />
	<edge id="1183433939_327587580_327587590" from="327587580" to="327587590" numLanes="1" shape="367412.41,5812936.21,0.00 367459.88,5812992.72,0.00" speed="8.33" />
	<edge id="484551588_2320906139_2347820273" from="2320906139" to="2347820273" numLanes="1" shape="367813.96,5810989.23,0.00 367811.10,5811001.29,0.00 367787.93,5811098.77,0.00 367778.36,5811139.02,0.00 367777.31,5811143.43,0.00 367768.91,5811178.82,0.00 367761.40,5811210.39,0.00" speed="13.89" />
	<edge id="29734036_327572599_327587580" from="327572599" to="327587580" numLanes="1" shape="367349.49,5812862.77,0.00 367412.41,5812936.21,0.00" speed="8.33" />
	<edge id="223013770_388371039_32033116" from="388371039" to="32033116" numLanes="1" shape="371271.82,5813714.93,0.00 371271.56,5813703.46,0.00 371272.18,5813693.23,0.00 371273.50,5813684.62,0.00 371276.81,5813673.04,0.00 371282.01,5813663.75,0.00 371286.57,5813656.79,0.00 371294.87,5813648.34,0.00 371313.42,5813633.72,0.00 371361.84,5813604.40,0.00 371382.12,5813590.30,0.00" speed="8.33" />
	<edge id="388566687_3917537558_3917537559" from="3917537558" to="3917537559" numLanes="1" shape="369280.42,5814039.42,0.00 369282.62,5814066.81,0.00" speed="8.33" />
	<edge id="377650033_1986836620_252271003" from="1986836620" to="252271003" numLanes="1" shape="367202.98,5812394.49,0.00 367202.95,5812393.11,0.00 367201.69,5812321.11,0.00" speed="13.89" />
	<edge id="365506612_3695097282_929466848" from="3695097282" to="929466848" numLanes="1" shape="367361.08,5813697.77,0.00 367374.15,5813684.24,0.00" speed="8.33" />
	<edge id="1313982061_450112961_1403081956" from="450112961" to="1403081956" numLanes="1" shape="367602.35,5814212.29,0.00 367446.42,5814273.91,0.00 367239.73,5814353.67,0.00" speed="8.33" />
	<edge id="570488833_5484775231_2953733190" from="5484775231" to="2953733190" numLanes="1" shape="366553.70,5812143.82,0.00 366530.59,5812151.02,0.00" speed="8.33" />
	<edge id="451948347_4487526497_3364664649" from="4487526497" to="3364664649" numLanes="1" shape="367296.01,5813371.07,0.00 367288.53,5813333.45,0.00 367281.41,5813296.13,0.00 367271.65,5813225.02,0.00 367263.40,5813152.90,0.00 367241.42,5812988.59,0.00" speed="19.44" />
	<edge id="225935758_252271003_252271072" from="252271003" to="252271072" numLanes="1" shape="367201.69,5812321.11,0.00 367151.57,5812325.69,0.00 367098.54,5812331.73,0.00 367045.61,5812338.53,0.00 367000.00,5812352.84,0.00 366906.81,5812379.10,0.00" speed="13.89" />
	<edge id="1122584625_9417910001_282664080" from="9417910001" to="282664080" numLanes="1" shape="371405.75,5814563.31,0.00 371403.53,5814555.43,0.00" speed="8.33" />
	<edge id="38041501_31921484_31921183" from="31921484" to="31921183" numLanes="1" shape="371209.84,5814029.42,0.00 371118.66,5814030.78,0.00" speed="8.33" />
	<edge id="171669819_142405168_58485622" from="142405168" to="58485622" numLanes="1" shape="366497.25,5811520.58,0.00 366507.96,5811518.67,0.00 366517.81,5811516.69,0.00" speed="8.33" />
	<edge id="215139316_2245582979_1403081922" from="2245582979" to="1403081922" numLanes="1" shape="367568.04,5814119.71,0.00 367735.27,5814060.39,0.00" speed="8.33" />
	<edge id="4906380_32033158_32033157" from="32033158" to="32033157" numLanes="1" shape="371262.54,5813501.86,0.00 371164.07,5813457.76,0.00" speed="8.33" />
	<edge id="994046349_382701226_1576580813" from="382701226" to="1576580813" numLanes="1" shape="371057.58,5814947.13,0.00 371057.75,5814951.37,0.00" speed="13.89" />